<additional>
    <laneAreaDetector id="np10_nt6_0" lane="np10_nt6_0" pos="289.60" length="200.00" file="ild.out" freq="1"/>
    <laneAreaDetector id="np1_nt1_0" lane="np1_nt1_0" pos="289.60" length="200.00" file="ild.out" freq="1"/>
    <laneAreaDetector id="np2_nt2_0" lane="np2_nt2_0" pos="289.60" length="200.00" file="ild.out" freq="1"/>
    <laneAreaDetector id="np3_nt3_0" lane="np3_nt3_0" pos="289.60" length="200.00" file="ild.out" freq="1"/>
    <laneAreaDetector id="np4_nt1_0" lane="np4_nt1_0" pos="292.80" length="200.00" file="ild.out" freq="1"/>
    <laneAreaDetector id="np4_nt1_1" lane="np4_nt1_1" pos="292.80" length="200.00" file="ild.out" freq="1"/>
    <laneAreaDetector id="np5_nt3_0" lane="np5_nt3_0" pos="292.80" length="200.00" file="ild.out" freq="1"/>
    <laneAreaDetector id="np5_nt3_1" lane="np5_nt3_1" pos="292.80" length="200.00" file="ild.out" freq="1"/>
    <laneAreaDetector id="np6_nt4_0" lane="np6_nt4_0" pos="292.80" length="200.00" file="ild.out" freq="1"/>
    <laneAreaDetector id="np6_nt4_1" lane="np6_nt4_1" pos="292.80" length="200.00" file="ild.out" freq="1"/>
    <laneAreaDetector id="np7_nt6_0" lane="np7_nt6_0" pos="292.80" length="200.00" file="ild.out" freq="1"/>
    <laneAreaDetector id="np7_nt6_1" lane="np7_nt6_1" pos="292.80" length="200.00" file="ild.out" freq="1"/>
    <laneAreaDetector id="np8_nt4_0" lane="np8_nt4_0" pos="289.60" length="200.00" file="ild.out" freq="1"/>
    <laneAreaDetector id="np9_nt5_0" lane="np9_nt5_0" pos="289.60" length="200.00" file="ild.out" freq="1"/>
    <laneAreaDetector id="nt1_np1_0" lane="nt1_np1_0" pos="289.60" length="200.00" file="ild.out" freq="1"/>
    <laneAreaDetector id="nt1_np4_0" lane="nt1_np4_0" pos="292.80" length="200.00" file="ild.out" freq="1"/>
    <laneAreaDetector id="nt1_np4_1" lane="nt1_np4_1" pos="292.80" length="200.00" file="ild.out" freq="1"/>
    <laneAreaDetector id="nt1_nt2_0" lane="nt1_nt2_0" pos="285.60" length="200.00" file="ild.out" freq="1"/>
    <laneAreaDetector id="nt1_nt2_1" lane="nt1_nt2_1" pos="285.60" length="200.00" file="ild.out" freq="1"/>
    <laneAreaDetector id="nt1_nt4_0" lane="nt1_nt4_0" pos="279.20" length="200.00" file="ild.out" freq="1"/>
    <laneAreaDetector id="nt2_np2_0" lane="nt2_np2_0" pos="289.60" length="200.00" file="ild.out" freq="1"/>
    <laneAreaDetector id="nt2_nt1_0" lane="nt2_nt1_0" pos="285.60" length="200.00" file="ild.out" freq="1"/>
    <laneAreaDetector id="nt2_nt1_1" lane="nt2_nt1_1" pos="285.60" length="200.00" file="ild.out" freq="1"/>
    <laneAreaDetector id="nt2_nt3_0" lane="nt2_nt3_0" pos="285.60" length="200.00" file="ild.out" freq="1"/>
    <laneAreaDetector id="nt2_nt3_1" lane="nt2_nt3_1" pos="285.60" length="200.00" file="ild.out" freq="1"/>
    <laneAreaDetector id="nt2_nt5_0" lane="nt2_nt5_0" pos="279.20" length="200.00" file="ild.out" freq="1"/>
    <laneAreaDetector id="nt3_np3_0" lane="nt3_np3_0" pos="289.60" length="200.00" file="ild.out" freq="1"/>
    <laneAreaDetector id="nt3_np5_0" lane="nt3_np5_0" pos="292.80" length="200.00" file="ild.out" freq="1"/>
    <laneAreaDetector id="nt3_nt2_0" lane="nt3_nt2_0" pos="285.60" length="200.00" file="ild.out" freq="1"/>
    <laneAreaDetector id="nt3_nt2_1" lane="nt3_nt2_1" pos="285.60" length="200.00" file="ild.out" freq="1"/>
    <laneAreaDetector id="nt3_nt6_0" lane="nt3_nt6_0" pos="279.20" length="200.00" file="ild.out" freq="1"/>
    <laneAreaDetector id="nt4_np6_0" lane="nt4_np6_0" pos="292.80" length="200.00" file="ild.out" freq="1"/>
    <laneAreaDetector id="nt4_np6_1" lane="nt4_np6_1" pos="292.80" length="200.00" file="ild.out" freq="1"/>
    <laneAreaDetector id="nt4_np8_0" lane="nt4_np8_0" pos="289.60" length="200.00" file="ild.out" freq="1"/>
    <laneAreaDetector id="nt4_nt1_0" lane="nt4_nt1_0" pos="279.20" length="200.00" file="ild.out" freq="1"/>
    <laneAreaDetector id="nt4_nt5_0" lane="nt4_nt5_0" pos="285.60" length="200.00" file="ild.out" freq="1"/>
    <laneAreaDetector id="nt4_nt5_1" lane="nt4_nt5_1" pos="285.60" length="200.00" file="ild.out" freq="1"/>
    <laneAreaDetector id="nt5_np9_0" lane="nt5_np9_0" pos="289.60" length="200.00" file="ild.out" freq="1"/>
    <laneAreaDetector id="nt5_nt2_0" lane="nt5_nt2_0" pos="279.20" length="200.00" file="ild.out" freq="1"/>
    <laneAreaDetector id="nt5_nt4_0" lane="nt5_nt4_0" pos="285.60" length="200.00" file="ild.out" freq="1"/>
    <laneAreaDetector id="nt5_nt4_1" lane="nt5_nt4_1" pos="285.60" length="200.00" file="ild.out" freq="1"/>
    <laneAreaDetector id="nt5_nt6_0" lane="nt5_nt6_0" pos="285.60" length="200.00" file="ild.out" freq="1"/>
    <laneAreaDetector id="nt5_nt6_1" lane="nt5_nt6_1" pos="285.60" length="200.00" file="ild.out" freq="1"/>
    <laneAreaDetector id="nt6_np10_0" lane="nt6_np10_0" pos="289.60" length="200.00" file="ild.out" freq="1"/>
    <laneAreaDetector id="nt6_np7_0" lane="nt6_np7_0" pos="292.80" length="200.00" file="ild.out" freq="1"/>
    <laneAreaDetector id="nt6_np7_1" lane="nt6_np7_1" pos="292.80" length="200.00" file="ild.out" freq="1"/>
    <laneAreaDetector id="nt6_nt3_0" lane="nt6_nt3_0" pos="279.20" length="200.00" file="ild.out" freq="1"/>
    <laneAreaDetector id="nt6_nt5_0" lane="nt6_nt5_0" pos="285.60" length="200.00" file="ild.out" freq="1"/>
    <laneAreaDetector id="nt6_nt5_1" lane="nt6_nt5_1" pos="285.60" length="200.00" file="ild.out" freq="1"/>
</additional>