<?xml version="1.0" ?>
<routes>
    <vType id="idle_vehicle" accel="2.6" decel="4.5" sigma="0.5" length="5.0" minGap="2.5" maxSpeed="15.7" carFollowModel="Krauss" tau="1.5" speedFactor="1.2" speedDev="0.8"/>
    <vType id="human_vehicle" accel="2.6" decel="4.5" sigma="0.5" length="5.0" minGap="2.5" maxSpeed="15.7" carFollowModel="Krauss" tau="1.5" speedFactor="1.2" speedDev="0.8"/>
    <vType id="leading_vehicle" accel="2.6" decel="4.5" sigma="0.5" length="5.0" minGap="2.5" maxSpeed="15.7" carFollowModel="Krauss" tau="1.5" speedFactor="1.2" speedDev="0"/>
    <vType id="following_vehicle" accel="2.6" decel="4.5" sigma="0.5" length="5.0" minGap="2.5" maxSpeed="15.7" carFollowModel="EIDM" tau="1.0" speedFactor="1.2" speedDev="0"/>
    <vehicle id="idle_vehicle_279" type="idle_vehicle" depart="0.32290154877339106">
        <route edges="np7_nt6 nt6_nt3 nt3_nt2 nt2_nt1 nt1_np4"/>
    </vehicle>
    <vehicle id="idle_vehicle_11" type="idle_vehicle" depart="1.2923494201782404">
        <route edges="np4_nt1 nt1_nt2 nt2_nt3 nt3_np3"/>
    </vehicle>
    <vehicle id="idle_vehicle_210" type="idle_vehicle" depart="1.5778227985704163">
        <route edges="np2_nt2 nt2_nt1 nt1_np1"/>
    </vehicle>
    <vehicle id="idle_vehicle_59" type="idle_vehicle" depart="1.6455477483605208">
        <route edges="np5_nt3 nt3_nt2 nt2_np2"/>
    </vehicle>
    <vehicle id="idle_vehicle_347" type="idle_vehicle" depart="4.008245272385658">
        <route edges="np6_nt4 nt4_nt1 nt1_nt2 nt2_nt3 nt3_np5"/>
    </vehicle>
    <vehicle id="idle_vehicle_192" type="idle_vehicle" depart="4.780234617115475">
        <route edges="np1_nt1 nt1_nt4 nt4_np8"/>
    </vehicle>
    <vehicle id="idle_vehicle_120" type="idle_vehicle" depart="9.146686481940591">
        <route edges="np2_nt2 nt2_nt3 nt3_np5"/>
    </vehicle>
    <vehicle id="idle_vehicle_323" type="idle_vehicle" depart="16.910713280700662">
        <route edges="np8_nt4 nt4_nt1 nt1_np1"/>
    </vehicle>
    <vehicle id="idle_vehicle_358" type="idle_vehicle" depart="20.54977283120296">
        <route edges="np7_nt6 nt6_nt3 nt3_nt2 nt2_nt1 nt1_np4"/>
    </vehicle>
    <vehicle id="idle_vehicle_356" type="idle_vehicle" depart="30.478256541169113">
        <route edges="np8_nt4 nt4_nt5 nt5_np9"/>
    </vehicle>
    <vehicle id="idle_vehicle_322" type="idle_vehicle" depart="31.95796297839948">
        <route edges="np10_nt6 nt6_nt3 nt3_np5"/>
    </vehicle>
    <vehicle id="idle_vehicle_56" type="idle_vehicle" depart="38.449149525372036">
        <route edges="np4_nt1 nt1_nt2 nt2_nt3 nt3_nt6 nt6_np7"/>
    </vehicle>
    <vehicle id="idle_vehicle_315" type="idle_vehicle" depart="46.97736394599259">
        <route edges="np4_nt1 nt1_nt2 nt2_nt3 nt3_np3"/>
    </vehicle>
    <vehicle id="idle_vehicle_320" type="idle_vehicle" depart="50.56045066581785">
        <route edges="np6_nt4 nt4_nt5 nt5_nt6 nt6_np10"/>
    </vehicle>
    <vehicle id="idle_vehicle_278" type="idle_vehicle" depart="56.11094656036606">
        <route edges="np1_nt1 nt1_nt2 nt2_np2"/>
    </vehicle>
    <vehicle id="idle_vehicle_32" type="idle_vehicle" depart="56.16437378363468">
        <route edges="np6_nt4 nt4_nt1 nt1_nt2 nt2_nt3 nt3_np3"/>
    </vehicle>
    <vehicle id="idle_vehicle_76" type="idle_vehicle" depart="61.51563592803511">
        <route edges="np3_nt3 nt3_nt2 nt2_nt1 nt1_np4"/>
    </vehicle>
    <vehicle id="idle_vehicle_241" type="idle_vehicle" depart="68.41885907534859">
        <route edges="np2_nt2 nt2_nt1 nt1_np1"/>
    </vehicle>
    <vehicle id="idle_vehicle_223" type="idle_vehicle" depart="75.13138380827087">
        <route edges="np9_nt5 nt5_nt2 nt2_nt3 nt3_np5"/>
    </vehicle>
    <vehicle id="idle_vehicle_124" type="idle_vehicle" depart="76.05431526040682">
        <route edges="np8_nt4 nt4_nt1 nt1_np1"/>
    </vehicle>
    <vehicle id="idle_vehicle_129" type="idle_vehicle" depart="79.9384511244834">
        <route edges="np10_nt6 nt6_np7 np7_nt6 nt6_np10"/>
    </vehicle>
    <vehicle id="idle_vehicle_74" type="idle_vehicle" depart="83.22205611755749">
        <route edges="np5_nt3 nt3_nt2 nt2_nt1 nt1_np1"/>
    </vehicle>
    <vehicle id="idle_vehicle_285" type="idle_vehicle" depart="83.64040557671792">
        <route edges="np4_nt1 nt1_np1"/>
    </vehicle>
    <vehicle id="idle_vehicle_1" type="idle_vehicle" depart="85.53030529277628">
        <route edges="np7_nt6 nt6_nt3 nt3_nt2 nt2_nt1 nt1_np4"/>
    </vehicle>
    <vehicle id="idle_vehicle_230" type="idle_vehicle" depart="86.66920532530256">
        <route edges="np2_nt2 nt2_nt1 nt1_np1"/>
    </vehicle>
    <vehicle id="idle_vehicle_237" type="idle_vehicle" depart="90.59499864495271">
        <route edges="np7_nt6 nt6_nt3 nt3_np3"/>
    </vehicle>
    <vehicle id="idle_vehicle_229" type="idle_vehicle" depart="102.17681982802658">
        <route edges="np9_nt5 nt5_nt6 nt6_np10"/>
    </vehicle>
    <vehicle id="idle_vehicle_272" type="idle_vehicle" depart="102.80028771545915">
        <route edges="np5_nt3 nt3_nt2 nt2_nt1 nt1_nt4 nt4_np8"/>
    </vehicle>
    <vehicle id="idle_vehicle_34" type="idle_vehicle" depart="108.36762884829234">
        <route edges="np10_nt6 nt6_nt3 nt3_nt2 nt2_np2"/>
    </vehicle>
    <vehicle id="idle_vehicle_66" type="idle_vehicle" depart="108.39571710493479">
        <route edges="np9_nt5 nt5_nt2 nt2_nt3 nt3_np5"/>
    </vehicle>
    <vehicle id="idle_vehicle_6" type="idle_vehicle" depart="108.73456064191167">
        <route edges="np7_nt6 nt6_np10 np10_nt6 nt6_np7"/>
    </vehicle>
    <vehicle id="idle_vehicle_166" type="idle_vehicle" depart="114.04514699108131">
        <route edges="np3_nt3 nt3_nt2 nt2_nt5 nt5_np9"/>
    </vehicle>
    <vehicle id="idle_vehicle_271" type="idle_vehicle" depart="115.12539092919826">
        <route edges="np9_nt5 nt5_nt2 nt2_nt1 nt1_nt4 nt4_nt5 nt5_np9"/>
    </vehicle>
    <vehicle id="idle_vehicle_312" type="idle_vehicle" depart="115.88677432456053">
        <route edges="np8_nt4 nt4_nt1 nt1_np1"/>
    </vehicle>
    <vehicle id="idle_vehicle_333" type="idle_vehicle" depart="121.08284705126789">
        <route edges="np10_nt6 nt6_nt5 nt5_np9"/>
    </vehicle>
    <vehicle id="idle_vehicle_267" type="idle_vehicle" depart="123.76834662145279">
        <route edges="np1_nt1 nt1_np4"/>
    </vehicle>
    <vehicle id="idle_vehicle_197" type="idle_vehicle" depart="130.79514370583195">
        <route edges="np7_nt6 nt6_nt3 nt3_nt2 nt2_nt1 nt1_np1"/>
    </vehicle>
    <vehicle id="idle_vehicle_291" type="idle_vehicle" depart="131.78185012149922">
        <route edges="np7_nt6 nt6_nt5 nt5_nt4 nt4_np8"/>
    </vehicle>
    <vehicle id="idle_vehicle_265" type="idle_vehicle" depart="132.09444261238187">
        <route edges="np1_nt1 nt1_nt2 nt2_nt3 nt3_np3"/>
    </vehicle>
    <vehicle id="idle_vehicle_5" type="idle_vehicle" depart="135.61531512286882">
        <route edges="np5_nt3 nt3_np3 np3_nt3 nt3_np5"/>
    </vehicle>
    <vehicle id="idle_vehicle_290" type="idle_vehicle" depart="137.06801299990943">
        <route edges="np10_nt6 nt6_nt3 nt3_np5"/>
    </vehicle>
    <vehicle id="idle_vehicle_26" type="idle_vehicle" depart="138.12449935141063">
        <route edges="np10_nt6 nt6_np7"/>
    </vehicle>
    <vehicle id="idle_vehicle_147" type="idle_vehicle" depart="138.9975009163826">
        <route edges="np4_nt1 nt1_np1 np1_nt1 nt1_np4"/>
    </vehicle>
    <vehicle id="idle_vehicle_310" type="idle_vehicle" depart="140.44504419974615">
        <route edges="np10_nt6 nt6_nt5 nt5_nt4 nt4_np6"/>
    </vehicle>
    <vehicle id="idle_vehicle_142" type="idle_vehicle" depart="141.4126462526818">
        <route edges="np7_nt6 nt6_nt3 nt3_np5"/>
    </vehicle>
    <vehicle id="idle_vehicle_134" type="idle_vehicle" depart="144.50408210191404">
        <route edges="np1_nt1 nt1_nt2 nt2_nt3 nt3_np3"/>
    </vehicle>
    <vehicle id="idle_vehicle_337" type="idle_vehicle" depart="145.4202172152929">
        <route edges="np6_nt4 nt4_nt5 nt5_nt6 nt6_np7"/>
    </vehicle>
    <vehicle id="idle_vehicle_262" type="idle_vehicle" depart="145.5292030288411">
        <route edges="np9_nt5 nt5_nt2 nt2_nt3 nt3_np5"/>
    </vehicle>
    <vehicle id="idle_vehicle_58" type="idle_vehicle" depart="149.17248088161335">
        <route edges="np3_nt3 nt3_nt2 nt2_nt1 nt1_np4"/>
    </vehicle>
    <vehicle id="idle_vehicle_239" type="idle_vehicle" depart="159.78795776629724">
        <route edges="np1_nt1 nt1_nt4 nt4_np8"/>
    </vehicle>
    <vehicle id="idle_vehicle_136" type="idle_vehicle" depart="165.50156016195868">
        <route edges="np6_nt4 nt4_nt1 nt1_nt2 nt2_np2"/>
    </vehicle>
    <vehicle id="idle_vehicle_84" type="idle_vehicle" depart="166.68615995551104">
        <route edges="np4_nt1 nt1_nt4 nt4_np6"/>
    </vehicle>
    <vehicle id="idle_vehicle_171" type="idle_vehicle" depart="169.8714905681201">
        <route edges="np9_nt5 nt5_nt2 nt2_np2"/>
    </vehicle>
    <vehicle id="idle_vehicle_132" type="idle_vehicle" depart="172.40329922755623">
        <route edges="np2_nt2 nt2_nt3 nt3_nt6 nt6_np7"/>
    </vehicle>
    <vehicle id="idle_vehicle_104" type="idle_vehicle" depart="172.54229008700923">
        <route edges="np6_nt4 nt4_nt1 nt1_np1"/>
    </vehicle>
    <vehicle id="idle_vehicle_164" type="idle_vehicle" depart="174.23432423657337">
        <route edges="np5_nt3 nt3_nt2 nt2_nt1 nt1_np1"/>
    </vehicle>
    <vehicle id="idle_vehicle_163" type="idle_vehicle" depart="175.18184363911766">
        <route edges="np2_nt2 nt2_nt3 nt3_nt6 nt6_np7"/>
    </vehicle>
    <vehicle id="idle_vehicle_282" type="idle_vehicle" depart="176.50685695083067">
        <route edges="np6_nt4 nt4_nt5 nt5_nt6 nt6_np10"/>
    </vehicle>
    <vehicle id="idle_vehicle_255" type="idle_vehicle" depart="180.66674473256558">
        <route edges="np7_nt6 nt6_nt3 nt3_nt2 nt2_nt1 nt1_np4"/>
    </vehicle>
    <vehicle id="idle_vehicle_260" type="idle_vehicle" depart="180.70515983648275">
        <route edges="np10_nt6 nt6_nt3 nt3_np5"/>
    </vehicle>
    <vehicle id="idle_vehicle_52" type="idle_vehicle" depart="182.1450216593198">
        <route edges="np9_nt5 nt5_nt6 nt6_np7"/>
    </vehicle>
    <vehicle id="idle_vehicle_89" type="idle_vehicle" depart="184.12356712268317">
        <route edges="np9_nt5 nt5_nt2 nt2_np2"/>
    </vehicle>
    <vehicle id="idle_vehicle_44" type="idle_vehicle" depart="187.04374815194438">
        <route edges="np4_nt1 nt1_np1 np1_nt1 nt1_np4"/>
    </vehicle>
    <vehicle id="idle_vehicle_208" type="idle_vehicle" depart="189.09473241256106">
        <route edges="np9_nt5 nt5_nt4 nt4_np8"/>
    </vehicle>
    <vehicle id="idle_vehicle_162" type="idle_vehicle" depart="191.2988043427024">
        <route edges="np6_nt4 nt4_nt5 nt5_nt6 nt6_np10"/>
    </vehicle>
    <vehicle id="idle_vehicle_139" type="idle_vehicle" depart="195.23708251623225">
        <route edges="np7_nt6 nt6_nt5 nt5_nt4 nt4_np6"/>
    </vehicle>
    <vehicle id="idle_vehicle_186" type="idle_vehicle" depart="195.70989656200118">
        <route edges="np1_nt1 nt1_nt2 nt2_nt3 nt3_nt6 nt6_np10"/>
    </vehicle>
    <vehicle id="idle_vehicle_249" type="idle_vehicle" depart="198.22940454976222">
        <route edges="np8_nt4 nt4_nt1 nt1_nt2 nt2_nt3 nt3_np3"/>
    </vehicle>
    <vehicle id="idle_vehicle_283" type="idle_vehicle" depart="199.2534963222055">
        <route edges="np3_nt3 nt3_nt2 nt2_np2"/>
    </vehicle>
    <vehicle id="idle_vehicle_236" type="idle_vehicle" depart="199.26362815528077">
        <route edges="np2_nt2 nt2_nt3 nt3_nt6 nt6_np10"/>
    </vehicle>
    <vehicle id="idle_vehicle_328" type="idle_vehicle" depart="199.72169422798044">
        <route edges="np4_nt1 nt1_nt2 nt2_nt3 nt3_np5"/>
    </vehicle>
    <vehicle id="idle_vehicle_196" type="idle_vehicle" depart="199.8030590889945">
        <route edges="np3_nt3 nt3_np5 np5_nt3 nt3_np3"/>
    </vehicle>
    <vehicle id="idle_vehicle_184" type="idle_vehicle" depart="200.59676651441373">
        <route edges="np4_nt1 nt1_np1 np1_nt1 nt1_np4"/>
    </vehicle>
    <vehicle id="idle_vehicle_224" type="idle_vehicle" depart="204.93700777666595">
        <route edges="np9_nt5 nt5_nt2 nt2_nt3 nt3_np5"/>
    </vehicle>
    <vehicle id="idle_vehicle_269" type="idle_vehicle" depart="208.27191806820446">
        <route edges="np3_nt3 nt3_nt2 nt2_nt1 nt1_nt4 nt4_np6"/>
    </vehicle>
    <vehicle id="idle_vehicle_329" type="idle_vehicle" depart="209.4369753429188">
        <route edges="np9_nt5 nt5_nt4 nt4_np6"/>
    </vehicle>
    <vehicle id="idle_vehicle_93" type="idle_vehicle" depart="209.75126009715143">
        <route edges="np2_nt2 nt2_nt1 nt1_np1"/>
    </vehicle>
    <vehicle id="idle_vehicle_130" type="idle_vehicle" depart="210.23509168222586">
        <route edges="np7_nt6 nt6_nt5 nt5_nt4 nt4_np8"/>
    </vehicle>
    <vehicle id="idle_vehicle_336" type="idle_vehicle" depart="211.4024781220273">
        <route edges="np10_nt6 nt6_nt3 nt3_nt2 nt2_nt1 nt1_np1"/>
    </vehicle>
    <vehicle id="idle_vehicle_275" type="idle_vehicle" depart="211.69316452362094">
        <route edges="np2_nt2 nt2_nt5 nt5_nt4 nt4_nt1 nt1_nt2 nt2_np2"/>
    </vehicle>
    <vehicle id="idle_vehicle_27" type="idle_vehicle" depart="215.63783167696852">
        <route edges="np2_nt2 nt2_nt3 nt3_np5"/>
    </vehicle>
    <vehicle id="idle_vehicle_119" type="idle_vehicle" depart="216.31735522505906">
        <route edges="np6_nt4 nt4_nt1 nt1_nt2 nt2_nt3 nt3_np3"/>
    </vehicle>
    <vehicle id="idle_vehicle_3" type="idle_vehicle" depart="216.61634595017958">
        <route edges="np5_nt3 nt3_nt6 nt6_np7"/>
    </vehicle>
    <vehicle id="idle_vehicle_204" type="idle_vehicle" depart="217.29484557473367">
        <route edges="np5_nt3 nt3_np3 np3_nt3 nt3_np5"/>
    </vehicle>
    <vehicle id="idle_vehicle_112" type="idle_vehicle" depart="217.95704571396382">
        <route edges="np2_nt2 nt2_nt3 nt3_nt6 nt6_np7"/>
    </vehicle>
    <vehicle id="idle_vehicle_64" type="idle_vehicle" depart="218.30607058682398">
        <route edges="np10_nt6 nt6_np7 np7_nt6 nt6_np10"/>
    </vehicle>
    <vehicle id="idle_vehicle_16" type="idle_vehicle" depart="219.12742373044028">
        <route edges="np2_nt2 nt2_nt3 nt3_np5"/>
    </vehicle>
    <vehicle id="idle_vehicle_198" type="idle_vehicle" depart="220.9159908305777">
        <route edges="np3_nt3 nt3_nt2 nt2_np2"/>
    </vehicle>
    <vehicle id="idle_vehicle_37" type="idle_vehicle" depart="221.44244582771614">
        <route edges="np7_nt6 nt6_nt3 nt3_nt2 nt2_nt1 nt1_np4"/>
    </vehicle>
    <vehicle id="idle_vehicle_30" type="idle_vehicle" depart="223.3642807310095">
        <route edges="np9_nt5 nt5_nt2 nt2_nt1 nt1_np4"/>
    </vehicle>
    <vehicle id="idle_vehicle_47" type="idle_vehicle" depart="225.12672988897418">
        <route edges="np6_nt4 nt4_nt5 nt5_nt6 nt6_np7"/>
    </vehicle>
    <vehicle id="idle_vehicle_203" type="idle_vehicle" depart="226.28022575524574">
        <route edges="np7_nt6 nt6_nt3 nt3_nt2 nt2_np2"/>
    </vehicle>
    <vehicle id="idle_vehicle_300" type="idle_vehicle" depart="228.2220747153568">
        <route edges="np8_nt4 nt4_nt1 nt1_nt2 nt2_nt3 nt3_np3"/>
    </vehicle>
    <vehicle id="idle_vehicle_258" type="idle_vehicle" depart="229.7330493295923">
        <route edges="np4_nt1 nt1_nt2 nt2_nt3 nt3_nt6 nt6_np10"/>
    </vehicle>
    <vehicle id="idle_vehicle_276" type="idle_vehicle" depart="232.63656129660282">
        <route edges="np8_nt4 nt4_nt1 nt1_np4"/>
    </vehicle>
    <vehicle id="idle_vehicle_248" type="idle_vehicle" depart="233.61208612589036">
        <route edges="np10_nt6 nt6_nt3 nt3_nt2 nt2_np2"/>
    </vehicle>
    <vehicle id="idle_vehicle_158" type="idle_vehicle" depart="239.33092668752778">
        <route edges="np8_nt4 nt4_nt1 nt1_np1"/>
    </vehicle>
    <vehicle id="idle_vehicle_23" type="idle_vehicle" depart="242.64233481267468">
        <route edges="np2_nt2 nt2_nt1 nt1_nt4 nt4_np8"/>
    </vehicle>
    <vehicle id="idle_vehicle_253" type="idle_vehicle" depart="243.83285013351104">
        <route edges="np7_nt6 nt6_np10 np10_nt6 nt6_np7"/>
    </vehicle>
    <vehicle id="idle_vehicle_141" type="idle_vehicle" depart="245.82057848753536">
        <route edges="np10_nt6 nt6_np7"/>
    </vehicle>
    <vehicle id="idle_vehicle_250" type="idle_vehicle" depart="247.5007030878551">
        <route edges="np7_nt6 nt6_nt5 nt5_np9"/>
    </vehicle>
    <vehicle id="idle_vehicle_25" type="idle_vehicle" depart="251.49331846390828">
        <route edges="np1_nt1 nt1_np4"/>
    </vehicle>
    <vehicle id="idle_vehicle_227" type="idle_vehicle" depart="252.7887150085319">
        <route edges="np5_nt3 nt3_nt6 nt6_np7"/>
    </vehicle>
    <vehicle id="idle_vehicle_40" type="idle_vehicle" depart="255.11379323814128">
        <route edges="np2_nt2 nt2_nt3 nt3_np3"/>
    </vehicle>
    <vehicle id="idle_vehicle_121" type="idle_vehicle" depart="255.8053738621119">
        <route edges="np6_nt4 nt4_nt1 nt1_nt2 nt2_np2"/>
    </vehicle>
    <vehicle id="idle_vehicle_137" type="idle_vehicle" depart="256.61632509761614">
        <route edges="np3_nt3 nt3_nt2 nt2_np2"/>
    </vehicle>
    <vehicle id="idle_vehicle_78" type="idle_vehicle" depart="256.77314800461096">
        <route edges="np1_nt1 nt1_nt2 nt2_nt3 nt3_np5"/>
    </vehicle>
    <vehicle id="idle_vehicle_9" type="idle_vehicle" depart="262.3859678643909">
        <route edges="np9_nt5 nt5_nt2 nt2_nt3 nt3_np3"/>
    </vehicle>
    <vehicle id="idle_vehicle_19" type="idle_vehicle" depart="262.44133063749706">
        <route edges="np5_nt3 nt3_nt2 nt2_nt1 nt1_np4"/>
    </vehicle>
    <vehicle id="idle_vehicle_228" type="idle_vehicle" depart="263.5931270023843">
        <route edges="np9_nt5 nt5_nt2 nt2_np2"/>
    </vehicle>
    <vehicle id="idle_vehicle_110" type="idle_vehicle" depart="266.3077188751719">
        <route edges="np5_nt3 nt3_nt6 nt6_np7"/>
    </vehicle>
    <vehicle id="idle_vehicle_126" type="idle_vehicle" depart="271.66570598531246">
        <route edges="np4_nt1 nt1_nt2 nt2_nt3 nt3_np3"/>
    </vehicle>
    <vehicle id="idle_vehicle_344" type="idle_vehicle" depart="274.03522088109503">
        <route edges="np3_nt3 nt3_np5 np5_nt3 nt3_np3"/>
    </vehicle>
    <vehicle id="idle_vehicle_45" type="idle_vehicle" depart="274.259979813038">
        <route edges="np1_nt1 nt1_nt2 nt2_np2"/>
    </vehicle>
    <vehicle id="idle_vehicle_252" type="idle_vehicle" depart="278.69319191088834">
        <route edges="np1_nt1 nt1_np4 np4_nt1 nt1_np1"/>
    </vehicle>
    <vehicle id="idle_vehicle_145" type="idle_vehicle" depart="282.510480781926">
        <route edges="np9_nt5 nt5_nt4 nt4_np6"/>
    </vehicle>
    <vehicle id="idle_vehicle_331" type="idle_vehicle" depart="283.3014490024907">
        <route edges="np6_nt4 nt4_nt1 nt1_nt2 nt2_nt3 nt3_np3"/>
    </vehicle>
    <vehicle id="idle_vehicle_24" type="idle_vehicle" depart="283.3593074359376">
        <route edges="np4_nt1 nt1_nt2 nt2_nt3 nt3_nt6 nt6_np7"/>
    </vehicle>
    <vehicle id="idle_vehicle_53" type="idle_vehicle" depart="286.71450385305394">
        <route edges="np4_nt1 nt1_nt2 nt2_nt3 nt3_nt6 nt6_np7"/>
    </vehicle>
    <vehicle id="idle_vehicle_72" type="idle_vehicle" depart="288.50748331614574">
        <route edges="np2_nt2 nt2_nt1 nt1_np1"/>
    </vehicle>
    <vehicle id="idle_vehicle_100" type="idle_vehicle" depart="288.98171529042054">
        <route edges="np5_nt3 nt3_nt2 nt2_nt5 nt5_np9"/>
    </vehicle>
    <vehicle id="idle_vehicle_342" type="idle_vehicle" depart="291.8325642584266">
        <route edges="np10_nt6 nt6_nt5 nt5_nt4 nt4_np6"/>
    </vehicle>
    <vehicle id="idle_vehicle_71" type="idle_vehicle" depart="293.1164582173385">
        <route edges="np5_nt3 nt3_nt2 nt2_nt1 nt1_nt4 nt4_np8"/>
    </vehicle>
    <vehicle id="idle_vehicle_247" type="idle_vehicle" depart="294.4020625956557">
        <route edges="np5_nt3 nt3_nt6 nt6_np10"/>
    </vehicle>
    <vehicle id="idle_vehicle_246" type="idle_vehicle" depart="296.82636649733587">
        <route edges="np2_nt2 nt2_nt5 nt5_np9"/>
    </vehicle>
    <vehicle id="idle_vehicle_68" type="idle_vehicle" depart="296.9393445525393">
        <route edges="np5_nt3 nt3_nt2 nt2_nt5 nt5_np9"/>
    </vehicle>
    <vehicle id="idle_vehicle_351" type="idle_vehicle" depart="297.22680974117725">
        <route edges="np1_nt1 nt1_nt2 nt2_nt3 nt3_np5"/>
    </vehicle>
    <vehicle id="idle_vehicle_135" type="idle_vehicle" depart="298.10469905768787">
        <route edges="np1_nt1 nt1_np4"/>
    </vehicle>
    <vehicle id="idle_vehicle_102" type="idle_vehicle" depart="299.8157445659655">
        <route edges="np7_nt6 nt6_nt5 nt5_np9"/>
    </vehicle>
    <vehicle id="idle_vehicle_188" type="idle_vehicle" depart="300.87411710223614">
        <route edges="np3_nt3 nt3_nt6 nt6_np10"/>
    </vehicle>
    <vehicle id="idle_vehicle_317" type="idle_vehicle" depart="303.31051070714386">
        <route edges="np5_nt3 nt3_nt2 nt2_nt1 nt1_np4"/>
    </vehicle>
    <vehicle id="idle_vehicle_87" type="idle_vehicle" depart="303.38321999005336">
        <route edges="np5_nt3 nt3_nt2 nt2_nt1 nt1_np1"/>
    </vehicle>
    <vehicle id="idle_vehicle_161" type="idle_vehicle" depart="307.31430007385035">
        <route edges="np5_nt3 nt3_nt2 nt2_nt1 nt1_nt4 nt4_np6"/>
    </vehicle>
    <vehicle id="idle_vehicle_94" type="idle_vehicle" depart="310.59317521586536">
        <route edges="np9_nt5 nt5_nt2 nt2_np2"/>
    </vehicle>
    <vehicle id="idle_vehicle_235" type="idle_vehicle" depart="313.92201301544736">
        <route edges="np6_nt4 nt4_np8"/>
    </vehicle>
    <vehicle id="idle_vehicle_218" type="idle_vehicle" depart="315.31166856524885">
        <route edges="np1_nt1 nt1_nt4 nt4_np8"/>
    </vehicle>
    <vehicle id="idle_vehicle_36" type="idle_vehicle" depart="318.80706017089915">
        <route edges="np3_nt3 nt3_nt2 nt2_nt1 nt1_nt4 nt4_np8"/>
    </vehicle>
    <vehicle id="idle_vehicle_202" type="idle_vehicle" depart="320.0181427034079">
        <route edges="np8_nt4 nt4_nt5 nt5_nt6 nt6_np7"/>
    </vehicle>
    <vehicle id="idle_vehicle_77" type="idle_vehicle" depart="320.0403583931602">
        <route edges="np6_nt4 nt4_nt5 nt5_nt6 nt6_np7"/>
    </vehicle>
    <vehicle id="idle_vehicle_209" type="idle_vehicle" depart="320.8901252277273">
        <route edges="np10_nt6 nt6_nt3 nt3_np5"/>
    </vehicle>
    <vehicle id="idle_vehicle_335" type="idle_vehicle" depart="323.73735220495126">
        <route edges="np3_nt3 nt3_nt2 nt2_nt5 nt5_np9"/>
    </vehicle>
    <vehicle id="idle_vehicle_57" type="idle_vehicle" depart="324.2996091994671">
        <route edges="np1_nt1 nt1_nt2 nt2_nt3 nt3_nt6 nt6_np10"/>
    </vehicle>
    <vehicle id="idle_vehicle_281" type="idle_vehicle" depart="325.05978392951766">
        <route edges="np4_nt1 nt1_np1 np1_nt1 nt1_np4"/>
    </vehicle>
    <vehicle id="idle_vehicle_187" type="idle_vehicle" depart="326.7931213349791">
        <route edges="np6_nt4 nt4_nt1 nt1_np1"/>
    </vehicle>
    <vehicle id="idle_vehicle_50" type="idle_vehicle" depart="330.16886252196053">
        <route edges="np2_nt2 nt2_nt5 nt5_nt4 nt4_nt1 nt1_nt2 nt2_np2"/>
    </vehicle>
    <vehicle id="idle_vehicle_214" type="idle_vehicle" depart="332.0275682761209">
        <route edges="np2_nt2 nt2_nt5 nt5_nt4 nt4_nt1 nt1_nt2 nt2_np2"/>
    </vehicle>
    <vehicle id="idle_vehicle_41" type="idle_vehicle" depart="332.87168971038">
        <route edges="np3_nt3 nt3_nt2 nt2_nt5 nt5_np9"/>
    </vehicle>
    <vehicle id="idle_vehicle_220" type="idle_vehicle" depart="334.17206857386077">
        <route edges="np10_nt6 nt6_nt3 nt3_np5"/>
    </vehicle>
    <vehicle id="idle_vehicle_15" type="idle_vehicle" depart="338.1454371212964">
        <route edges="np2_nt2 nt2_nt1 nt1_nt4 nt4_np6"/>
    </vehicle>
    <vehicle id="idle_vehicle_348" type="idle_vehicle" depart="338.92579391565044">
        <route edges="np3_nt3 nt3_np5 np5_nt3 nt3_np3"/>
    </vehicle>
    <vehicle id="idle_vehicle_340" type="idle_vehicle" depart="340.6687692714451">
        <route edges="np8_nt4 nt4_nt1 nt1_np4"/>
    </vehicle>
    <vehicle id="idle_vehicle_254" type="idle_vehicle" depart="344.6886919149484">
        <route edges="np10_nt6 nt6_np7 np7_nt6 nt6_np10"/>
    </vehicle>
    <vehicle id="idle_vehicle_2" type="idle_vehicle" depart="347.25460549432705">
        <route edges="np4_nt1 nt1_nt4 nt4_np6"/>
    </vehicle>
    <vehicle id="idle_vehicle_125" type="idle_vehicle" depart="349.0779593316015">
        <route edges="np7_nt6 nt6_nt3 nt3_nt2 nt2_nt1 nt1_np1"/>
    </vehicle>
    <vehicle id="idle_vehicle_359" type="idle_vehicle" depart="351.69221415280447">
        <route edges="np4_nt1 nt1_nt4 nt4_np8"/>
    </vehicle>
    <vehicle id="idle_vehicle_31" type="idle_vehicle" depart="353.9018894571516">
        <route edges="np9_nt5 nt5_nt2 nt2_nt3 nt3_np5"/>
    </vehicle>
    <vehicle id="idle_vehicle_352" type="idle_vehicle" depart="355.1931335638279">
        <route edges="np1_nt1 nt1_nt4 nt4_np8"/>
    </vehicle>
    <vehicle id="idle_vehicle_149" type="idle_vehicle" depart="356.2217507928733">
        <route edges="np9_nt5 nt5_nt2 nt2_nt3 nt3_np5"/>
    </vehicle>
    <vehicle id="idle_vehicle_295" type="idle_vehicle" depart="358.14447759816784">
        <route edges="np6_nt4 nt4_np8"/>
    </vehicle>
    <vehicle id="idle_vehicle_318" type="idle_vehicle" depart="358.3693485915562">
        <route edges="np8_nt4 nt4_np6 np6_nt4 nt4_np8"/>
    </vehicle>
    <vehicle id="idle_vehicle_13" type="idle_vehicle" depart="359.43831012913387">
        <route edges="np7_nt6 nt6_np10 np10_nt6 nt6_np7"/>
    </vehicle>
    <vehicle id="idle_vehicle_346" type="idle_vehicle" depart="359.8547982812338">
        <route edges="np2_nt2 nt2_nt1 nt1_np4"/>
    </vehicle>
    <vehicle id="idle_vehicle_240" type="idle_vehicle" depart="360.1443345218045">
        <route edges="np3_nt3 nt3_nt2 nt2_nt1 nt1_nt4 nt4_np8"/>
    </vehicle>
    <vehicle id="idle_vehicle_12" type="idle_vehicle" depart="361.39598264692376">
        <route edges="np1_nt1 nt1_nt2 nt2_nt3 nt3_np3"/>
    </vehicle>
    <vehicle id="idle_vehicle_83" type="idle_vehicle" depart="361.55791445083906">
        <route edges="np10_nt6 nt6_np7 np7_nt6 nt6_np10"/>
    </vehicle>
    <vehicle id="idle_vehicle_294" type="idle_vehicle" depart="362.64882385163634">
        <route edges="np1_nt1 nt1_np4"/>
    </vehicle>
    <vehicle id="idle_vehicle_159" type="idle_vehicle" depart="364.6356370475779">
        <route edges="np9_nt5 nt5_nt4 nt4_np8"/>
    </vehicle>
    <vehicle id="idle_vehicle_234" type="idle_vehicle" depart="365.94047838557316">
        <route edges="np1_nt1 nt1_nt2 nt2_nt3 nt3_np3"/>
    </vehicle>
    <vehicle id="idle_vehicle_69" type="idle_vehicle" depart="369.54591280488705">
        <route edges="np2_nt2 nt2_nt3 nt3_nt6 nt6_np10"/>
    </vehicle>
    <vehicle id="idle_vehicle_195" type="idle_vehicle" depart="370.1570837075645">
        <route edges="np4_nt1 nt1_np1 np1_nt1 nt1_np4"/>
    </vehicle>
    <vehicle id="idle_vehicle_20" type="idle_vehicle" depart="373.548666606801">
        <route edges="np3_nt3 nt3_nt2 nt2_nt5 nt5_np9"/>
    </vehicle>
    <vehicle id="idle_vehicle_97" type="idle_vehicle" depart="376.42503457164986">
        <route edges="np2_nt2 nt2_nt3 nt3_np5"/>
    </vehicle>
    <vehicle id="idle_vehicle_207" type="idle_vehicle" depart="376.5000100896794">
        <route edges="np1_nt1 nt1_np4"/>
    </vehicle>
    <vehicle id="idle_vehicle_39" type="idle_vehicle" depart="376.84770468523857">
        <route edges="np5_nt3 nt3_nt2 nt2_nt1 nt1_np1"/>
    </vehicle>
    <vehicle id="idle_vehicle_304" type="idle_vehicle" depart="385.42978655467135">
        <route edges="np9_nt5 nt5_nt4 nt4_np8"/>
    </vehicle>
    <vehicle id="idle_vehicle_259" type="idle_vehicle" depart="386.44778870085645">
        <route edges="np4_nt1 nt1_nt2 nt2_nt3 nt3_nt6 nt6_np7"/>
    </vehicle>
    <vehicle id="idle_vehicle_116" type="idle_vehicle" depart="389.5502135137809">
        <route edges="np3_nt3 nt3_nt2 nt2_nt1 nt1_nt4 nt4_np6"/>
    </vehicle>
    <vehicle id="idle_vehicle_284" type="idle_vehicle" depart="390.50688570818045">
        <route edges="np3_nt3 nt3_nt2 nt2_nt1 nt1_np4"/>
    </vehicle>
    <vehicle id="idle_vehicle_43" type="idle_vehicle" depart="390.6972118888127">
        <route edges="np1_nt1 nt1_nt2 nt2_nt3 nt3_np5"/>
    </vehicle>
    <vehicle id="idle_vehicle_270" type="idle_vehicle" depart="391.5867094780274">
        <route edges="np2_nt2 nt2_nt1 nt1_np4"/>
    </vehicle>
    <vehicle id="idle_vehicle_182" type="idle_vehicle" depart="392.43209059305883">
        <route edges="np1_nt1 nt1_nt2 nt2_nt5 nt5_np9"/>
    </vehicle>
    <vehicle id="idle_vehicle_114" type="idle_vehicle" depart="392.5291637416679">
        <route edges="np7_nt6 nt6_nt3 nt3_np5"/>
    </vehicle>
    <vehicle id="idle_vehicle_226" type="idle_vehicle" depart="392.6814534309969">
        <route edges="np6_nt4 nt4_nt5 nt5_nt6 nt6_np7"/>
    </vehicle>
    <vehicle id="idle_vehicle_298" type="idle_vehicle" depart="395.951107189953">
        <route edges="np10_nt6 nt6_nt5 nt5_nt4 nt4_np6"/>
    </vehicle>
    <vehicle id="idle_vehicle_82" type="idle_vehicle" depart="398.12150335481897">
        <route edges="np9_nt5 nt5_nt2 nt2_nt3 nt3_np5"/>
    </vehicle>
    <vehicle id="idle_vehicle_106" type="idle_vehicle" depart="402.58639956087177">
        <route edges="np7_nt6 nt6_nt3 nt3_nt2 nt2_nt1 nt1_np1"/>
    </vehicle>
    <vehicle id="idle_vehicle_96" type="idle_vehicle" depart="403.30591065950534">