<?xml version="1.0" ?>
<routes>
    <vType id="idle_vehicle" accel="2.6" decel="4.5" sigma="0.5" length="5.0" minGap="2.5" maxSpeed="15.7" carFollowModel="Krauss" tau="1.5" speedFactor="1.2" speedDev="0.8"/>
    <vType id="human_vehicle" accel="2.6" decel="4.5" sigma="0.5" length="5.0" minGap="2.5" maxSpeed="15.7" carFollowModel="Krauss" tau="1.5" speedFactor="1.2" speedDev="0.8"/>
    <vType id="leading_vehicle" accel="2.6" decel="4.5" sigma="0.5" length="5.0" minGap="2.5" maxSpeed="15.7" carFollowModel="Krauss" tau="1.5" speedFactor="1.2" speedDev="0"/>
    <vType id="following_vehicle" accel="2.6" decel="4.5" sigma="0.5" length="5.0" minGap="2.5" maxSpeed="15.7" carFollowModel="EIDM" tau="1.0" speedFactor="1.2" speedDev="0"/>
    <vehicle id="idle_vehicle_22" type="idle_vehicle" depart="0.6827145616841612">
        <route edges="np3_nt3 nt3_nt2 nt2_nt1 nt1_np1"/>
    </vehicle>
    <vehicle id="idle_vehicle_73" type="idle_vehicle" depart="1.4770828326502006">
        <route edges="np5_nt3 nt3_nt2 nt2_nt1 nt1_np1"/>
    </vehicle>
    <vehicle id="idle_vehicle_85" type="idle_vehicle" depart="14.306094763910249">
        <route edges="np10_nt6 nt6_nt3 nt3_np3"/>
    </vehicle>
    <vehicle id="idle_vehicle_112" type="idle_vehicle" depart="14.903892665241347">
        <route edges="np10_nt6 nt6_nt5 nt5_nt4 nt4_np8"/>
    </vehicle>
    <vehicle id="idle_vehicle_109" type="idle_vehicle" depart="18.592710201354024">
        <route edges="np3_nt3 nt3_nt2 nt2_nt1 nt1_np1"/>
    </vehicle>
    <vehicle id="idle_vehicle_71" type="idle_vehicle" depart="34.15623274426514">
        <route edges="np9_nt5 nt5_nt4 nt4_np6"/>
    </vehicle>
    <vehicle id="idle_vehicle_45" type="idle_vehicle" depart="36.75099746272474">
        <route edges="np9_nt5 nt5_nt2 nt2_np2"/>
    </vehicle>
    <vehicle id="idle_vehicle_117" type="idle_vehicle" depart="40.158269008840186">
        <route edges="np2_nt2 nt2_nt5 nt5_nt4 nt4_nt1 nt1_nt2 nt2_np2"/>
    </vehicle>
    <vehicle id="idle_vehicle_4" type="idle_vehicle" depart="41.107727086170165">
        <route edges="np7_nt6 nt6_nt5 nt5_nt4 nt4_np8"/>
    </vehicle>
    <vehicle id="idle_vehicle_27" type="idle_vehicle" depart="47.19385119031658">
        <route edges="np3_nt3 nt3_np5"/>
    </vehicle>
    <vehicle id="idle_vehicle_37" type="idle_vehicle" depart="53.99364713384713">
        <route edges="np10_nt6 nt6_nt5 nt5_nt4 nt4_np8"/>
    </vehicle>
    <vehicle id="idle_vehicle_115" type="idle_vehicle" depart="73.77935741358561">
        <route edges="np8_nt4 nt4_nt5 nt5_nt6 nt6_np10"/>
    </vehicle>
    <vehicle id="idle_vehicle_101" type="idle_vehicle" depart="80.86671471429243">
        <route edges="np3_nt3 nt3_nt2 nt2_nt1 nt1_nt4 nt4_np8"/>
    </vehicle>
    <vehicle id="idle_vehicle_79" type="idle_vehicle" depart="97.4320739640568">
        <route edges="np9_nt5 nt5_nt2 nt2_nt3 nt3_np5"/>
    </vehicle>
    <vehicle id="idle_vehicle_47" type="idle_vehicle" depart="102.87473893296601">
        <route edges="np5_nt3 nt3_nt6 nt6_np10"/>
    </vehicle>
    <vehicle id="idle_vehicle_108" type="idle_vehicle" depart="116.66930987087997">
        <route edges="np9_nt5 nt5_nt4 nt4_np8"/>
    </vehicle>
    <vehicle id="idle_vehicle_48" type="idle_vehicle" depart="122.8842492446696">
        <route edges="np3_nt3 nt3_np5 np5_nt3 nt3_np3"/>
    </vehicle>
    <vehicle id="idle_vehicle_41" type="idle_vehicle" depart="136.57576066699252">
        <route edges="np1_nt1 nt1_nt2 nt2_nt3 nt3_np3"/>
    </vehicle>
    <vehicle id="idle_vehicle_61" type="idle_vehicle" depart="139.3987343863171">
        <route edges="np3_nt3 nt3_nt6 nt6_np10"/>
    </vehicle>
    <vehicle id="idle_vehicle_116" type="idle_vehicle" depart="147.5504194410874">
        <route edges="np4_nt1 nt1_nt2 nt2_np2"/>
    </vehicle>
    <vehicle id="idle_vehicle_18" type="idle_vehicle" depart="148.0407617280785">
        <route edges="np5_nt3 nt3_nt2 nt2_np2"/>
    </vehicle>
    <vehicle id="idle_vehicle_89" type="idle_vehicle" depart="161.49813827251842">
        <route edges="np7_nt6 nt6_nt5 nt5_np9"/>
    </vehicle>
    <vehicle id="idle_vehicle_94" type="idle_vehicle" depart="164.4404726109797">
        <route edges="np1_nt1 nt1_nt2 nt2_nt3 nt3_nt6 nt6_np10"/>
    </vehicle>
    <vehicle id="idle_vehicle_118" type="idle_vehicle" depart="165.9101076650888">
        <route edges="np5_nt3 nt3_np3 np3_nt3 nt3_np5"/>
    </vehicle>
    <vehicle id="idle_vehicle_87" type="idle_vehicle" depart="169.84074149412507">
        <route edges="np7_nt6 nt6_nt5 nt5_nt4 nt4_np8"/>
    </vehicle>
    <vehicle id="idle_vehicle_28" type="idle_vehicle" depart="180.58837029562955">
        <route edges="np4_nt1 nt1_np1 np1_nt1 nt1_np4"/>
    </vehicle>
    <vehicle id="idle_vehicle_40" type="idle_vehicle" depart="181.52406864140147">
        <route edges="np7_nt6 nt6_nt3 nt3_np5"/>
    </vehicle>
    <vehicle id="idle_vehicle_110" type="idle_vehicle" depart="188.81388420075186">
        <route edges="np1_nt1 nt1_np4"/>
    </vehicle>
    <vehicle id="idle_vehicle_72" type="idle_vehicle" depart="191.11973025430657">
        <route edges="np1_nt1 nt1_nt2 nt2_nt3 nt3_nt6 nt6_np7"/>
    </vehicle>
    <vehicle id="idle_vehicle_8" type="idle_vehicle" depart="230.92590110274918">
        <route edges="np7_nt6 nt6_nt3 nt3_nt2 nt2_np2"/>
    </vehicle>
    <vehicle id="idle_vehicle_63" type="idle_vehicle" depart="233.8951432403249">
        <route edges="np8_nt4 nt4_nt1 nt1_nt2 nt2_nt3 nt3_np3"/>
    </vehicle>
    <vehicle id="idle_vehicle_88" type="idle_vehicle" depart="241.0688883221388">
        <route edges="np6_nt4 nt4_np8"/>
    </vehicle>
    <vehicle id="idle_vehicle_90" type="idle_vehicle" depart="242.42004899270339">
        <route edges="np3_nt3 nt3_nt6 nt6_np7"/>
    </vehicle>
    <vehicle id="idle_vehicle_104" type="idle_vehicle" depart="244.24900785557585">
        <route edges="np4_nt1 nt1_nt4 nt4_np8"/>
    </vehicle>
    <vehicle id="idle_vehicle_78" type="idle_vehicle" depart="244.50552692587132">
        <route edges="np8_nt4 nt4_np6"/>
    </vehicle>
    <vehicle id="idle_vehicle_65" type="idle_vehicle" depart="251.31988918169367">
        <route edges="np5_nt3 nt3_nt6 nt6_np10"/>
    </vehicle>
    <vehicle id="idle_vehicle_42" type="idle_vehicle" depart="252.84605780679135">
        <route edges="np9_nt5 nt5_nt2 nt2_nt1 nt1_np1"/>
    </vehicle>
    <vehicle id="idle_vehicle_60" type="idle_vehicle" depart="254.26775577562486">
        <route edges="np10_nt6 nt6_np7 np7_nt6 nt6_np10"/>
    </vehicle>
    <vehicle id="idle_vehicle_69" type="idle_vehicle" depart="255.8998392464918">
        <route edges="np5_nt3 nt3_nt2 nt2_nt1 nt1_nt4 nt4_np6"/>
    </vehicle>
    <vehicle id="idle_vehicle_17" type="idle_vehicle" depart="258.41522972551536">
        <route edges="np4_nt1 nt1_nt2 nt2_np2"/>
    </vehicle>
    <vehicle id="idle_vehicle_29" type="idle_vehicle" depart="268.7476357798581">
        <route edges="np6_nt4 nt4_np8"/>
    </vehicle>
    <vehicle id="idle_vehicle_9" type="idle_vehicle" depart="271.61941349795535">
        <route edges="np2_nt2 nt2_nt1 nt1_np1"/>
    </vehicle>
    <vehicle id="idle_vehicle_74" type="idle_vehicle" depart="271.8138538268824">
        <route edges="np3_nt3 nt3_nt2 nt2_nt1 nt1_np1"/>
    </vehicle>
    <vehicle id="idle_vehicle_98" type="idle_vehicle" depart="282.7363382561783">
        <route edges="np8_nt4 nt4_nt1 nt1_nt2 nt2_nt3 nt3_np5"/>
    </vehicle>
    <vehicle id="idle_vehicle_23" type="idle_vehicle" depart="284.37986252187545">
        <route edges="np1_nt1 nt1_np4 np4_nt1 nt1_np1"/>
    </vehicle>
    <vehicle id="idle_vehicle_91" type="idle_vehicle" depart="306.04344388618296">
        <route edges="np2_nt2 nt2_nt1 nt1_np4"/>
    </vehicle>
    <vehicle id="idle_vehicle_57" type="idle_vehicle" depart="315.0880909597521">
        <route edges="np6_nt4 nt4_nt1 nt1_nt2 nt2_nt3 nt3_np5"/>
    </vehicle>
    <vehicle id="idle_vehicle_66" type="idle_vehicle" depart="319.1373536681491">
        <route edges="np4_nt1 nt1_np1 np1_nt1 nt1_np4"/>
    </vehicle>
    <vehicle id="idle_vehicle_82" type="idle_vehicle" depart="325.190414820349">
        <route edges="np3_nt3 nt3_np5"/>
    </vehicle>
    <vehicle id="idle_vehicle_5" type="idle_vehicle" depart="333.169024159422">
        <route edges="np7_nt6 nt6_nt5 nt5_nt4 nt4_np6"/>
    </vehicle>
    <vehicle id="idle_vehicle_12" type="idle_vehicle" depart="334.8517846656492">
        <route edges="np10_nt6 nt6_np7 np7_nt6 nt6_np10"/>
    </vehicle>
    <vehicle id="idle_vehicle_77" type="idle_vehicle" depart="336.25164883169634">
        <route edges="np5_nt3 nt3_nt6 nt6_np7"/>
    </vehicle>
    <vehicle id="idle_vehicle_38" type="idle_vehicle" depart="338.7025331015833">
        <route edges="np6_nt4 nt4_nt5 nt5_nt6 nt6_np7"/>
    </vehicle>
    <vehicle id="idle_vehicle_39" type="idle_vehicle" depart="350.105582655791">
        <route edges="np6_nt4 nt4_nt1 nt1_nt2 nt2_nt3 nt3_np5"/>
    </vehicle>
    <vehicle id="idle_vehicle_75" type="idle_vehicle" depart="353.0166104261741">
        <route edges="np7_nt6 nt6_np10 np10_nt6 nt6_np7"/>
    </vehicle>
    <vehicle id="idle_vehicle_2" type="idle_vehicle" depart="355.06361221764644">
        <route edges="np3_nt3 nt3_nt6 nt6_np7"/>
    </vehicle>
    <vehicle id="idle_vehicle_10" type="idle_vehicle" depart="370.3968823856955">
        <route edges="np8_nt4 nt4_nt1 nt1_nt2 nt2_nt3 nt3_np5"/>
    </vehicle>
    <vehicle id="idle_vehicle_96" type="idle_vehicle" depart="375.6462664056236">
        <route edges="np10_nt6 nt6_nt3 nt3_np3"/>
    </vehicle>
    <vehicle id="idle_vehicle_7" type="idle_vehicle" depart="382.19010814437615">
        <route edges="np6_nt4 nt4_nt1 nt1_nt2 nt2_nt3 nt3_np5"/>
    </vehicle>
    <vehicle id="idle_vehicle_43" type="idle_vehicle" depart="396.7336482033515">
        <route edges="np2_nt2 nt2_nt5 nt5_np9"/>
    </vehicle>
    <vehicle id="idle_vehicle_34" type="idle_vehicle" depart="396.88246655917067">
        <route edges="np4_nt1 nt1_nt4 nt4_np6"/>
    </vehicle>
    <vehicle id="idle_vehicle_46" type="idle_vehicle" depart="409.0228771482264">
        <route edges="np7_nt6 nt6_np10"/>
    </vehicle>
    <vehicle id="idle_vehicle_26" type="idle_vehicle" depart="409.12088156930776">
        <route edges="np10_nt6 nt6_nt3 nt3_np3"/>
    </vehicle>
    <vehicle id="idle_vehicle_103" type="idle_vehicle" depart="444.83007589802844">
        <route edges="np9_nt5 nt5_nt2 nt2_nt3 nt3_np5"/>
    </vehicle>
    <vehicle id="idle_vehicle_76" type="idle_vehicle" depart="450.6025859059163">
        <route edges="np6_nt4 nt4_nt1 nt1_np1"/>
    </vehicle>
    <vehicle id="idle_vehicle_86" type="idle_vehicle" depart="468.6965450702878">
        <route edges="np4_nt1 nt1_nt2 nt2_np2"/>
    </vehicle>
    <vehicle id="idle_vehicle_25" type="idle_vehicle" depart="469.92630377704563">
        <route edges="np6_nt4 nt4_nt5 nt5_nt6 nt6_np10"/>
    </vehicle>
    <vehicle id="idle_vehicle_83" type="idle_vehicle" depart="471.4643556512992">
        <route edges="np8_nt4 nt4_np6 np6_nt4 nt4_np8"/>
    </vehicle>
    <vehicle id="idle_vehicle_92" type="idle_vehicle" depart="478.14908872031816">
        <route edges="np10_nt6 nt6_nt3 nt3_np5"/>
    </vehicle>
    <vehicle id="idle_vehicle_31" type="idle_vehicle" depart="479.48244148016494">
        <route edges="np5_nt3 nt3_nt2 nt2_nt1 nt1_nt4 nt4_np6"/>
    </vehicle>
    <vehicle id="idle_vehicle_55" type="idle_vehicle" depart="506.38723171217663">
        <route edges="np2_nt2 nt2_nt1 nt1_np1"/>
    </vehicle>
    <vehicle id="idle_vehicle_105" type="idle_vehicle" depart="509.26476409946065">
        <route edges="np10_nt6 nt6_nt5 nt5_nt4 nt4_np8"/>
    </vehicle>
    <vehicle id="idle_vehicle_6" type="idle_vehicle" depart="515.6584080971481">
        <route edges="np7_nt6 nt6_nt5 nt5_np9"/>
    </vehicle>
    <vehicle id="idle_vehicle_70" type="idle_vehicle" depart="522.5163688777934">
        <route edges="np8_nt4 nt4_nt1 nt1_nt2 nt2_np2"/>
    </vehicle>
    <vehicle id="idle_vehicle_3" type="idle_vehicle" depart="528.7783242138835">
        <route edges="np1_nt1 nt1_nt2 nt2_np2"/>
    </vehicle>
    <vehicle id="idle_vehicle_114" type="idle_vehicle" depart="534.7123885697425">
        <route edges="np5_nt3 nt3_nt2 nt2_nt1 nt1_np1"/>
    </vehicle>
    <vehicle id="idle_vehicle_95" type="idle_vehicle" depart="535.285018773801">
        <route edges="np6_nt4 nt4_nt5 nt5_nt6 nt6_np10"/>
    </vehicle>
    <vehicle id="idle_vehicle_14" type="idle_vehicle" depart="536.7883502811616">
        <route edges="np2_nt2 nt2_nt1 nt1_np1"/>
    </vehicle>
    <vehicle id="idle_vehicle_111" type="idle_vehicle" depart="540.1633024780707">
        <route edges="np1_nt1 nt1_nt2 nt2_np2"/>
    </vehicle>
    <vehicle id="idle_vehicle_36" type="idle_vehicle" depart="542.0006642343377">
        <route edges="np8_nt4 nt4_np6 np6_nt4 nt4_np8"/>
    </vehicle>
    <vehicle id="idle_vehicle_64" type="idle_vehicle" depart="545.4794035294028">
        <route edges="np6_nt4 nt4_nt5 nt5_nt6 nt6_np10"/>
    </vehicle>
    <vehicle id="idle_vehicle_80" type="idle_vehicle" depart="546.31954420565">
        <route edges="np3_nt3 nt3_nt6 nt6_np10"/>
    </vehicle>
    <vehicle id="idle_vehicle_58" type="idle_vehicle" depart="549.8347980525834">
        <route edges="np6_nt4 nt4_nt5 nt5_nt6 nt6_np10"/>
    </vehicle>
    <vehicle id="idle_vehicle_50" type="idle_vehicle" depart="556.6377501495843">
        <route edges="np9_nt5 nt5_nt2 nt2_nt1 nt1_np4"/>
    </vehicle>
    <vehicle id="idle_vehicle_32" type="idle_vehicle" depart="561.114707301006">
        <route edges="np9_nt5 nt5_nt4 nt4_np8"/>
    </vehicle>
    <vehicle id="idle_vehicle_56" type="idle_vehicle" depart="561.1340554658594">
        <route edges="np5_nt3 nt3_nt2 nt2_nt1 nt1_nt4 nt4_np6"/>
    </vehicle>
    <vehicle id="idle_vehicle_21" type="idle_vehicle" depart="564.1052725829431">
        <route edges="np6_nt4 nt4_nt5 nt5_nt6 nt6_np10"/>
    </vehicle>
    <vehicle id="idle_vehicle_44" type="idle_vehicle" depart="568.5245858032863">
        <route edges="np7_nt6 nt6_nt3 nt3_nt2 nt2_nt1 nt1_np4"/>
    </vehicle>
    <vehicle id="idle_vehicle_52" type="idle_vehicle" depart="577.5991260438607">
        <route edges="np6_nt4 nt4_nt1 nt1_np4"/>
    </vehicle>
    <vehicle id="idle_vehicle_59" type="idle_vehicle" depart="581.5201762534886">
        <route edges="np7_nt6 nt6_np10"/>
    </vehicle>
    <vehicle id="idle_vehicle_54" type="idle_vehicle" depart="596.9305299769605">
        <route edges="np9_nt5 nt5_nt2 nt2_nt3 nt3_np5"/>
    </vehicle>
    <vehicle id="idle_vehicle_119" type="idle_vehicle" depart="602.9548293322389">
        <route edges="np5_nt3 nt3_nt2 nt2_nt1 nt1_nt4 nt4_np6"/>
    </vehicle>
    <vehicle id="idle_vehicle_51" type="idle_vehicle" depart="607.4366515904428">
        <route edges="np1_nt1 nt1_np4 np4_nt1 nt1_np1"/>
    </vehicle>
    <vehicle id="idle_vehicle_102" type="idle_vehicle" depart="615.2067567450147">
        <route edges="np6_nt4 nt4_np8 np8_nt4 nt4_np6"/>
    </vehicle>
    <vehicle id="idle_vehicle_93" type="idle_vehicle" depart="627.8758219332336">
        <route edges="np8_nt4 nt4_nt1 nt1_nt2 nt2_np2"/>
    </vehicle>
    <vehicle id="idle_vehicle_53" type="idle_vehicle" depart="629.3223703648694">
        <route edges="np8_nt4 nt4_nt5 nt5_nt6 nt6_np7"/>
    </vehicle>
    <vehicle id="idle_vehicle_19" type="idle_vehicle" depart="635.2273313260092">
        <route edges="np7_nt6 nt6_nt3 nt3_nt2 nt2_nt1 nt1_np1"/>
    </vehicle>
    <vehicle id="idle_vehicle_106" type="idle_vehicle" depart="642.5884809986397">
        <route edges="np5_nt3 nt3_np3 np3_nt3 nt3_np5"/>
    </vehicle>
    <vehicle id="idle_vehicle_49" type="idle_vehicle" depart="650.2301024642117">
        <route edges="np4_nt1 nt1_nt2 nt2_nt3 nt3_np3"/>
    </vehicle>
    <vehicle id="idle_vehicle_15" type="idle_vehicle" depart="653.3461429702035">
        <route edges="np10_nt6 nt6_nt3 nt3_np3"/>
    </vehicle>
    <vehicle id="idle_vehicle_68" type="idle_vehicle" depart="656.8686113037385">
        <route edges="np10_nt6 nt6_nt5 nt5_nt4 nt4_np8"/>
    </vehicle>
    <vehicle id="idle_vehicle_0" type="idle_vehicle" depart="668.3111032502793">
        <route edges="np3_nt3 nt3_nt2 nt2_nt1 nt1_np1"/>
    </vehicle>
    <vehicle id="idle_vehicle_62" type="idle_vehicle" depart="672.9505298589297">
        <route edges="np1_nt1 nt1_np4"/>
    </vehicle>
    <vehicle id="idle_vehicle_35" type="idle_vehicle" depart="676.5915793313504">
        <route edges="np10_nt6 nt6_nt3 nt3_nt2 nt2_nt1 nt1_np1"/>
    </vehicle>
    <vehicle id="idle_vehicle_33" type="idle_vehicle" depart="677.1560920397519">
        <route edges="np6_nt4 nt4_nt1 nt1_nt2 nt2_np2"/>
    </vehicle>
    <vehicle id="idle_vehicle_24" type="idle_vehicle" depart="699.5791945300388">
        <route edges="np3_nt3 nt3_nt2 nt2_np2"/>
    </vehicle>
    <vehicle id="idle_vehicle_107" type="idle_vehicle" depart="702.3338219043709">
        <route edges="np4_nt1 nt1_nt2 nt2_nt3 nt3_nt6 nt6_np10"/>
    </vehicle>
    <vehicle id="idle_vehicle_81" type="idle_vehicle" depart="711.6471824503399">
        <route edges="np2_nt2 nt2_nt1 nt1_nt4 nt4_np8"/>
    </vehicle>
    <vehicle id="idle_vehicle_20" type="idle_vehicle" depart="714.0462859169164">
        <route edges="np9_nt5 nt5_nt6 nt6_np7"/>
    </vehicle>
    <vehicle id="idle_vehicle_13" type="idle_vehicle" depart="727.0282108768685">
        <route edges="np5_nt3 nt3_nt6 nt6_np10"/>
    </vehicle>
    <vehicle id="idle_vehicle_11" type="idle_vehicle" depart="731.6656442809442">
        <route edges="np8_nt4 nt4_nt1 nt1_nt2 nt2_nt3 nt3_np5"/>
    </vehicle>
    <vehicle id="idle_vehicle_30" type="idle_vehicle" depart="735.7768357621848">
        <route edges="np9_nt5 nt5_nt4 nt4_np8"/>
    </vehicle>
    <vehicle id="idle_vehicle_16" type="idle_vehicle" depart="735.8467182171029">
        <route edges="np4_nt1 nt1_nt2 nt2_nt3 nt3_nt6 nt6_np7"/>
    </vehicle>
    <vehicle id="idle_vehicle_97" type="idle_vehicle" depart="740.832157685311">
        <route edges="np7_nt6 nt6_nt5 nt5_np9"/>
    </vehicle>
    <vehicle id="idle_vehicle_67" type="idle_vehicle" depart="744.4287565046504">
        <route edges="np5_nt3 nt3_np3"/>
    </vehicle>
    <vehicle id="idle_vehicle_1" type="idle_vehicle" depart="754.0215589528053">
        <route edges="np2_nt2 nt2_nt1 nt1_nt4 nt4_np6"/>
    </vehicle>
    <vehicle id="idle_vehicle_99" type="idle_vehicle" depart="756.0615159791693">
        <route edges="np8_nt4 nt4_nt1 nt1_nt2 nt2_np2"/>
    </vehicle>
    <vehicle id="idle_vehicle_84" type="idle_vehicle" depart="758.6618110333412">
        <route edges="np9_nt5 nt5_nt2 nt2_nt1 nt1_nt4 nt4_nt5 nt5_np9"/>
    </vehicle>
    <vehicle id="idle_vehicle_100" type="idle_vehicle" depart="796.7705562655699">
        <route edges="np3_nt3 nt3_np5"/>
    </vehicle>
    <vehicle id="idle_vehicle_113" type="idle_vehicle" depart="797.9188064274342">
        <route edges="np4_nt1 nt1_np1"/>
    </vehicle>
</routes>
