<?xml version="1.0" ?>
<routes>
    <vType id="idle_vehicle" accel="2.6" decel="4.5" sigma="0.5" length="5.0" minGap="2.5" maxSpeed="15.7" carFollowModel="Krauss" tau="1.5" speedFactor="1.2" speedDev="0.8"/>
    <vType id="human_vehicle" accel="2.6" decel="4.5" sigma="0.5" length="5.0" minGap="2.5" maxSpeed="15.7" carFollowModel="Krauss" tau="1.5" speedFactor="1.2" speedDev="0.8"/>
    <vType id="leading_vehicle" accel="2.6" decel="4.5" sigma="0.5" length="5.0" minGap="2.5" maxSpeed="15.7" carFollowModel="Krauss" tau="1.5" speedFactor="1.2" speedDev="0"/>
    <vType id="following_vehicle" accel="2.6" decel="4.5" sigma="0.5" length="5.0" minGap="2.5" maxSpeed="15.7" carFollowModel="EIDM" tau="1.0" speedFactor="1.2" speedDev="0"/>
    <vehicle id="idle_vehicle_108" type="idle_vehicle" depart="3.373252840864538">
        <route edges="np4_nt1 nt1_nt4 nt4_np6"/>
    </vehicle>
    <vehicle id="idle_vehicle_289" type="idle_vehicle" depart="5.1966411293878245">
        <route edges="np1_nt1 nt1_nt2 nt2_nt3 nt3_np3"/>
    </vehicle>
    <vehicle id="idle_vehicle_435" type="idle_vehicle" depart="5.3009842366271265">
        <route edges="np4_nt1 nt1_np1"/>
    </vehicle>
    <vehicle id="idle_vehicle_522" type="idle_vehicle" depart="10.323011568461116">
        <route edges="np6_nt4 nt4_nt1 nt1_np4"/>
    </vehicle>
    <vehicle id="idle_vehicle_175" type="idle_vehicle" depart="10.54947829416566">
        <route edges="np7_nt6 nt6_np10 np10_nt6 nt6_np7"/>
    </vehicle>
    <vehicle id="idle_vehicle_286" type="idle_vehicle" depart="11.492597992772868">
        <route edges="np4_nt1 nt1_nt2 nt2_nt3 nt3_nt6 nt6_np7"/>
    </vehicle>
    <vehicle id="idle_vehicle_639" type="idle_vehicle" depart="11.536557140141745">
        <route edges="np5_nt3 nt3_nt2 nt2_nt1 nt1_np4"/>
    </vehicle>
    <vehicle id="idle_vehicle_3" type="idle_vehicle" depart="13.497614714063655">
        <route edges="np2_nt2 nt2_nt1 nt1_nt4 nt4_np6"/>
    </vehicle>
    <vehicle id="idle_vehicle_755" type="idle_vehicle" depart="14.034942572797338">
        <route edges="np10_nt6 nt6_nt5 nt5_nt4 nt4_np8"/>
    </vehicle>
    <vehicle id="idle_vehicle_594" type="idle_vehicle" depart="14.343485687525082">
        <route edges="np5_nt3 nt3_nt2 nt2_nt1 nt1_nt4 nt4_np6"/>
    </vehicle>
    <vehicle id="idle_vehicle_200" type="idle_vehicle" depart="14.621375026617311">
        <route edges="np9_nt5 nt5_nt2 nt2_nt3 nt3_np3"/>
    </vehicle>
    <vehicle id="idle_vehicle_56" type="idle_vehicle" depart="14.763481109755894">
        <route edges="np5_nt3 nt3_nt6 nt6_np7"/>
    </vehicle>
    <vehicle id="idle_vehicle_588" type="idle_vehicle" depart="15.668157722657128">
        <route edges="np9_nt5 nt5_nt2 nt2_nt1 nt1_np1"/>
    </vehicle>
    <vehicle id="idle_vehicle_597" type="idle_vehicle" depart="16.344659365085246">
        <route edges="np1_nt1 nt1_nt4 nt4_np8"/>
    </vehicle>
    <vehicle id="idle_vehicle_646" type="idle_vehicle" depart="16.785789855615985">
        <route edges="np3_nt3 nt3_nt2 nt2_np2"/>
    </vehicle>
    <vehicle id="idle_vehicle_0" type="idle_vehicle" depart="16.80488495189385">
        <route edges="np9_nt5 nt5_nt2 nt2_nt1 nt1_nt4 nt4_nt5 nt5_np9"/>
    </vehicle>
    <vehicle id="idle_vehicle_211" type="idle_vehicle" depart="17.51344693771344">
        <route edges="np10_nt6 nt6_nt5 nt5_nt4 nt4_np8"/>
    </vehicle>
    <vehicle id="idle_vehicle_465" type="idle_vehicle" depart="19.209934382979554">
        <route edges="np5_nt3 nt3_np3 np3_nt3 nt3_np5"/>
    </vehicle>
    <vehicle id="idle_vehicle_565" type="idle_vehicle" depart="19.35269475722947">
        <route edges="np3_nt3 nt3_nt2 nt2_nt1 nt1_nt4 nt4_np6"/>
    </vehicle>
    <vehicle id="idle_vehicle_96" type="idle_vehicle" depart="20.40692646141702">
        <route edges="np10_nt6 nt6_nt3 nt3_np3"/>
    </vehicle>
    <vehicle id="idle_vehicle_471" type="idle_vehicle" depart="21.23182117763296">
        <route edges="np2_nt2 nt2_nt1 nt1_nt4 nt4_np6"/>
    </vehicle>
    <vehicle id="idle_vehicle_778" type="idle_vehicle" depart="22.229587471037338">
        <route edges="np6_nt4 nt4_nt1 nt1_np1"/>
    </vehicle>
    <vehicle id="idle_vehicle_575" type="idle_vehicle" depart="22.598483299972383">
        <route edges="np5_nt3 nt3_nt2 nt2_nt1 nt1_nt4 nt4_np6"/>
    </vehicle>
    <vehicle id="idle_vehicle_287" type="idle_vehicle" depart="22.715653810765524">
        <route edges="np4_nt1 nt1_np1 np1_nt1 nt1_np4"/>
    </vehicle>
    <vehicle id="idle_vehicle_360" type="idle_vehicle" depart="23.40674654196384">
        <route edges="np6_nt4 nt4_nt1 nt1_np4"/>
    </vehicle>
    <vehicle id="idle_vehicle_228" type="idle_vehicle" depart="24.110740709765643">
        <route edges="np5_nt3 nt3_nt2 nt2_nt1 nt1_np1"/>
    </vehicle>
    <vehicle id="idle_vehicle_789" type="idle_vehicle" depart="24.191622169995863">
        <route edges="np1_nt1 nt1_np4 np4_nt1 nt1_np1"/>
    </vehicle>
    <vehicle id="idle_vehicle_20" type="idle_vehicle" depart="24.465227841243742">
        <route edges="np7_nt6 nt6_nt5 nt5_np9"/>
    </vehicle>
    <vehicle id="idle_vehicle_459" type="idle_vehicle" depart="26.641511235239435">
        <route edges="np7_nt6 nt6_nt5 nt5_np9"/>
    </vehicle>
    <vehicle id="idle_vehicle_694" type="idle_vehicle" depart="27.803122252394896">
        <route edges="np10_nt6 nt6_nt3 nt3_nt2 nt2_np2"/>
    </vehicle>
    <vehicle id="idle_vehicle_112" type="idle_vehicle" depart="27.913388709992493">
        <route edges="np10_nt6 nt6_np7"/>
    </vehicle>
    <vehicle id="idle_vehicle_321" type="idle_vehicle" depart="32.12348956326272">
        <route edges="np8_nt4 nt4_nt1 nt1_nt2 nt2_nt3 nt3_np5"/>
    </vehicle>
    <vehicle id="idle_vehicle_520" type="idle_vehicle" depart="32.23681946530883">
        <route edges="np2_nt2 nt2_nt1 nt1_nt4 nt4_np6"/>
    </vehicle>
    <vehicle id="idle_vehicle_728" type="idle_vehicle" depart="32.996841876306604">
        <route edges="np10_nt6 nt6_nt3 nt3_nt2 nt2_nt1 nt1_np4"/>
    </vehicle>
    <vehicle id="idle_vehicle_110" type="idle_vehicle" depart="33.076491387050396">
        <route edges="np8_nt4 nt4_nt5 nt5_nt6 nt6_np10"/>
    </vehicle>
    <vehicle id="idle_vehicle_339" type="idle_vehicle" depart="34.00403152116019">
        <route edges="np9_nt5 nt5_nt4 nt4_np8"/>
    </vehicle>
    <vehicle id="idle_vehicle_334" type="idle_vehicle" depart="34.738701095681805">
        <route edges="np7_nt6 nt6_nt3 nt3_nt2 nt2_nt1 nt1_np4"/>
    </vehicle>
    <vehicle id="idle_vehicle_570" type="idle_vehicle" depart="35.09344140822881">
        <route edges="np9_nt5 nt5_nt2 nt2_nt3 nt3_np5"/>
    </vehicle>
    <vehicle id="idle_vehicle_29" type="idle_vehicle" depart="37.12600800359862">
        <route edges="np8_nt4 nt4_nt1 nt1_nt2 nt2_np2"/>
    </vehicle>
    <vehicle id="idle_vehicle_6" type="idle_vehicle" depart="37.409007002693606">
        <route edges="np4_nt1 nt1_nt2 nt2_nt3 nt3_np3"/>
    </vehicle>
    <vehicle id="idle_vehicle_123" type="idle_vehicle" depart="37.919902263931604">
        <route edges="np4_nt1 nt1_nt4 nt4_np8"/>
    </vehicle>
    <vehicle id="idle_vehicle_214" type="idle_vehicle" depart="37.929785435911526">
        <route edges="np2_nt2 nt2_nt1 nt1_np4"/>
    </vehicle>
    <vehicle id="idle_vehicle_151" type="idle_vehicle" depart="38.230478476945876">
        <route edges="np5_nt3 nt3_nt2 nt2_nt1 nt1_nt4 nt4_np8"/>
    </vehicle>
    <vehicle id="idle_vehicle_541" type="idle_vehicle" depart="42.224278017396614">
        <route edges="np4_nt1 nt1_nt2 nt2_nt3 nt3_nt6 nt6_np10"/>
    </vehicle>
    <vehicle id="idle_vehicle_802" type="idle_vehicle" depart="42.29968397505566">
        <route edges="np8_nt4 nt4_np6 np6_nt4 nt4_np8"/>
    </vehicle>
    <vehicle id="idle_vehicle_11" type="idle_vehicle" depart="44.07237875559913">
        <route edges="np8_nt4 nt4_nt1 nt1_nt2 nt2_nt3 nt3_np3"/>
    </vehicle>
    <vehicle id="idle_vehicle_337" type="idle_vehicle" depart="44.44756818815412">
        <route edges="np5_nt3 nt3_np3"/>
    </vehicle>
    <vehicle id="idle_vehicle_417" type="idle_vehicle" depart="44.560089241865874">
        <route edges="np2_nt2 nt2_nt1 nt1_np4"/>
    </vehicle>
    <vehicle id="idle_vehicle_353" type="idle_vehicle" depart="46.37248289687763">
        <route edges="np10_nt6 nt6_np7"/>
    </vehicle>
    <vehicle id="idle_vehicle_634" type="idle_vehicle" depart="48.14011323764262">
        <route edges="np2_nt2 nt2_nt3 nt3_nt6 nt6_np7"/>
    </vehicle>
    <vehicle id="idle_vehicle_277" type="idle_vehicle" depart="49.383538669141025">
        <route edges="np5_nt3 nt3_nt6 nt6_np7"/>
    </vehicle>
    <vehicle id="idle_vehicle_525" type="idle_vehicle" depart="50.692916026641214">
        <route edges="np4_nt1 nt1_nt4 nt4_np6"/>
    </vehicle>
    <vehicle id="idle_vehicle_766" type="idle_vehicle" depart="51.091129738380836">
        <route edges="np1_nt1 nt1_nt2 nt2_nt3 nt3_np5"/>
    </vehicle>
    <vehicle id="idle_vehicle_51" type="idle_vehicle" depart="51.276338218096384">
        <route edges="np6_nt4 nt4_nt1 nt1_np4"/>
    </vehicle>
    <vehicle id="idle_vehicle_297" type="idle_vehicle" depart="51.43661020455363">
        <route edges="np7_nt6 nt6_nt5 nt5_nt4 nt4_np8"/>
    </vehicle>
    <vehicle id="idle_vehicle_245" type="idle_vehicle" depart="52.06778753928223">
        <route edges="np10_nt6 nt6_nt3 nt3_nt2 nt2_nt1 nt1_np1"/>
    </vehicle>
    <vehicle id="idle_vehicle_798" type="idle_vehicle" depart="55.164455343607074">
        <route edges="np4_nt1 nt1_nt2 nt2_np2"/>
    </vehicle>
    <vehicle id="idle_vehicle_517" type="idle_vehicle" depart="55.186381186017016">
        <route edges="np9_nt5 nt5_nt2 nt2_nt1 nt1_np1"/>
    </vehicle>
    <vehicle id="idle_vehicle_280" type="idle_vehicle" depart="55.469121655590925">
        <route edges="np9_nt5 nt5_nt2 nt2_np2"/>
    </vehicle>
    <vehicle id="idle_vehicle_39" type="idle_vehicle" depart="56.40846057483255">
        <route edges="np3_nt3 nt3_nt2 nt2_nt1 nt1_nt4 nt4_np8"/>
    </vehicle>
    <vehicle id="idle_vehicle_800" type="idle_vehicle" depart="56.54984243581032">
        <route edges="np4_nt1 nt1_nt4 nt4_np6"/>
    </vehicle>
    <vehicle id="idle_vehicle_89" type="idle_vehicle" depart="57.2006436670212">
        <route edges="np4_nt1 nt1_nt2 nt2_np2"/>
    </vehicle>
    <vehicle id="idle_vehicle_32" type="idle_vehicle" depart="58.01225584458747">
        <route edges="np3_nt3 nt3_np5 np5_nt3 nt3_np3"/>
    </vehicle>
    <vehicle id="idle_vehicle_212" type="idle_vehicle" depart="58.41563927787057">
        <route edges="np6_nt4 nt4_nt5 nt5_np9"/>
    </vehicle>
    <vehicle id="idle_vehicle_461" type="idle_vehicle" depart="58.59140964181915">
        <route edges="np6_nt4 nt4_nt1 nt1_nt2 nt2_np2"/>
    </vehicle>
    <vehicle id="idle_vehicle_333" type="idle_vehicle" depart="61.231951498764744">
        <route edges="np9_nt5 nt5_nt2 nt2_nt1 nt1_np4"/>
    </vehicle>
    <vehicle id="idle_vehicle_375" type="idle_vehicle" depart="62.43184370935238">
        <route edges="np4_nt1 nt1_np1"/>
    </vehicle>
    <vehicle id="idle_vehicle_682" type="idle_vehicle" depart="64.09510509500134">
        <route edges="np10_nt6 nt6_np7 np7_nt6 nt6_np10"/>
    </vehicle>
    <vehicle id="idle_vehicle_422" type="idle_vehicle" depart="64.12978870340771">
        <route edges="np2_nt2 nt2_nt1 nt1_np1"/>
    </vehicle>
    <vehicle id="idle_vehicle_302" type="idle_vehicle" depart="64.73806489708807">
        <route edges="np7_nt6 nt6_np10"/>
    </vehicle>
    <vehicle id="idle_vehicle_356" type="idle_vehicle" depart="64.81777426176593">
        <route edges="np1_nt1 nt1_nt2 nt2_nt5 nt5_np9"/>
    </vehicle>
    <vehicle id="idle_vehicle_342" type="idle_vehicle" depart="66.23683917899763">
        <route edges="np9_nt5 nt5_nt6 nt6_np10"/>
    </vehicle>
    <vehicle id="idle_vehicle_413" type="idle_vehicle" depart="67.42379938521195">
        <route edges="np9_nt5 nt5_nt4 nt4_np8"/>
    </vehicle>
    <vehicle id="idle_vehicle_839" type="idle_vehicle" depart="67.54349966493737">
        <route edges="np1_nt1 nt1_nt2 nt2_nt3 nt3_nt6 nt6_np7"/>
    </vehicle>
    <vehicle id="idle_vehicle_404" type="idle_vehicle" depart="69.26910739311074">
        <route edges="np8_nt4 nt4_nt1 nt1_nt2 nt2_nt3 nt3_np3"/>
    </vehicle>
    <vehicle id="idle_vehicle_807" type="idle_vehicle" depart="69.28478062677348">
        <route edges="np3_nt3 nt3_nt6 nt6_np7"/>
    </vehicle>
    <vehicle id="idle_vehicle_737" type="idle_vehicle" depart="70.43548368453773">
        <route edges="np9_nt5 nt5_nt2 nt2_nt3 nt3_np3"/>
    </vehicle>
    <vehicle id="idle_vehicle_754" type="idle_vehicle" depart="70.85508798574223">
        <route edges="np3_nt3 nt3_nt2 nt2_nt5 nt5_np9"/>
    </vehicle>
    <vehicle id="idle_vehicle_464" type="idle_vehicle" depart="73.00089679103978">
        <route edges="np2_nt2 nt2_nt3 nt3_np3"/>
    </vehicle>
    <vehicle id="idle_vehicle_538" type="idle_vehicle" depart="73.52322154178763">
        <route edges="np5_nt3 nt3_nt2 nt2_nt5 nt5_np9"/>
    </vehicle>
    <vehicle id="idle_vehicle_265" type="idle_vehicle" depart="73.64014203403882">
        <route edges="np8_nt4 nt4_nt1 nt1_np4"/>
    </vehicle>
    <vehicle id="idle_vehicle_379" type="idle_vehicle" depart="75.27616463802156">
        <route edges="np8_nt4 nt4_np6 np6_nt4 nt4_np8"/>
    </vehicle>
    <vehicle id="idle_vehicle_741" type="idle_vehicle" depart="76.69013285651438">
        <route edges="np10_nt6 nt6_nt5 nt5_nt4 nt4_np8"/>
    </vehicle>
    <vehicle id="idle_vehicle_311" type="idle_vehicle" depart="76.79178556873643">
        <route edges="np4_nt1 nt1_np1"/>
    </vehicle>
    <vehicle id="idle_vehicle_323" type="idle_vehicle" depart="77.36892176772523">
        <route edges="np7_nt6 nt6_nt3 nt3_nt2 nt2_np2"/>
    </vehicle>
    <vehicle id="idle_vehicle_582" type="idle_vehicle" depart="77.53063752885171">
        <route edges="np3_nt3 nt3_np5 np5_nt3 nt3_np3"/>
    </vehicle>
    <vehicle id="idle_vehicle_65" type="idle_vehicle" depart="78.1877645756194">
        <route edges="np1_nt1 nt1_nt4 nt4_np6"/>
    </vehicle>
    <vehicle id="idle_vehicle_833" type="idle_vehicle" depart="78.76730019446114">
        <route edges="np5_nt3 nt3_nt2 nt2_nt1 nt1_np1"/>
    </vehicle>
    <vehicle id="idle_vehicle_45" type="idle_vehicle" depart="79.38492623294842">
        <route edges="np3_nt3 nt3_np5 np5_nt3 nt3_np3"/>
    </vehicle>
    <vehicle id="idle_vehicle_340" type="idle_vehicle" depart="79.75773704810285">
        <route edges="np7_nt6 nt6_nt5 nt5_nt4 nt4_np8"/>
    </vehicle>
    <vehicle id="idle_vehicle_768" type="idle_vehicle" depart="80.60286323751606">
        <route edges="np6_nt4 nt4_nt1 nt1_nt2 nt2_np2"/>
    </vehicle>
    <vehicle id="idle_vehicle_626" type="idle_vehicle" depart="81.38530907057361">
        <route edges="np7_nt6 nt6_nt5 nt5_nt4 nt4_np8"/>
    </vehicle>
    <vehicle id="idle_vehicle_533" type="idle_vehicle" depart="81.48601447832134">
        <route edges="np9_nt5 nt5_nt6 nt6_np7"/>
    </vehicle>
    <vehicle id="idle_vehicle_479" type="idle_vehicle" depart="81.92018813835107">
        <route edges="np8_nt4 nt4_nt5 nt5_nt6 nt6_np10"/>
    </vehicle>
    <vehicle id="idle_vehicle_325" type="idle_vehicle" depart="83.5929122973579">
        <route edges="np8_nt4 nt4_np6"/>
    </vehicle>
    <vehicle id="idle_vehicle_447" type="idle_vehicle" depart="83.82160288078202">
        <route edges="np5_nt3 nt3_nt2 nt2_nt5 nt5_np9"/>
    </vehicle>
    <vehicle id="idle_vehicle_534" type="idle_vehicle" depart="84.24417685912732">
        <route edges="np7_nt6 nt6_nt3 nt3_nt2 nt2_np2"/>
    </vehicle>
    <vehicle id="idle_vehicle_823" type="idle_vehicle" depart="85.46258033229836">
        <route edges="np1_nt1 nt1_nt2 nt2_nt3 nt3_nt6 nt6_np7"/>
    </vehicle>
    <vehicle id="idle_vehicle_831" type="idle_vehicle" depart="88.37599469773005">
        <route edges="np3_nt3 nt3_nt2 nt2_nt1 nt1_np4"/>
    </vehicle>
    <vehicle id="idle_vehicle_799" type="idle_vehicle" depart="88.96411493136966">
        <route edges="np1_nt1 nt1_nt2 nt2_nt5 nt5_np9"/>
    </vehicle>
    <vehicle id="idle_vehicle_703" type="idle_vehicle" depart="89.80420629581064">
        <route edges="np1_nt1 nt1_np4 np4_nt1 nt1_np1"/>
    </vehicle>
    <vehicle id="idle_vehicle_408" type="idle_vehicle" depart="91.5254221800617">
        <route edges="np6_nt4 nt4_np8"/>
    </vehicle>
    <vehicle id="idle_vehicle_276" type="idle_vehicle" depart="91.60202575148828">
        <route edges="np6_nt4 nt4_nt1 nt1_nt2 nt2_nt3 nt3_np5"/>
    </vehicle>
    <vehicle id="idle_vehicle_487" type="idle_vehicle" depart="91.76280708656907">
        <route edges="np1_nt1 nt1_nt2 nt2_nt3 nt3_nt6 nt6_np7"/>
    </vehicle>
    <vehicle id="idle_vehicle_469" type="idle_vehicle" depart="91.8267891142567">
        <route edges="np9_nt5 nt5_nt6 nt6_np7"/>
    </vehicle>
    <vehicle id="idle_vehicle_363" type="idle_vehicle" depart="91.88359748770108">
        <route edges="np4_nt1 nt1_np1 np1_nt1 nt1_np4"/>
    </vehicle>
    <vehicle id="idle_vehicle_371" type="idle_vehicle" depart="93.60914086668801">
        <route edges="np5_nt3 nt3_np3 np3_nt3 nt3_np5"/>
    </vehicle>
    <vehicle id="idle_vehicle_618" type="idle_vehicle" depart="94.11863494846067">
        <route edges="np9_nt5 nt5_nt4 nt4_np8"/>
    </vehicle>
    <vehicle id="idle_vehicle_748" type="idle_vehicle" depart="94.58270466645385">
        <route edges="np6_nt4 nt4_nt5 nt5_np9"/>
    </vehicle>
    <vehicle id="idle_vehicle_671" type="idle_vehicle" depart="96.62602350890977">
        <route edges="np8_nt4 nt4_nt1 nt1_nt2 nt2_nt3 nt3_np5"/>
    </vehicle>
    <vehicle id="idle_vehicle_794" type="idle_vehicle" depart="97.65199345863395">
        <route edges="np9_nt5 nt5_nt2 nt2_nt1 nt1_np1"/>
    </vehicle>
    <vehicle id="idle_vehicle_326" type="idle_vehicle" depart="98.18583570209603">
        <route edges="np7_nt6 nt6_nt3 nt3_nt2 nt2_nt1 nt1_np1"/>
    </vehicle>
    <vehicle id="idle_vehicle_106" type="idle_vehicle" depart="100.81460840795815">
        <route edges="np4_nt1 nt1_nt2 nt2_nt3 nt3_nt6 nt6_np7"/>
    </vehicle>
    <vehicle id="idle_vehicle_573" type="idle_vehicle" depart="101.38877947562746">
        <route edges="np9_nt5 nt5_nt2 nt2_nt1 nt1_np4"/>
    </vehicle>
    <vehicle id="idle_vehicle_186" type="idle_vehicle" depart="101.55139725225214">
        <route edges="np2_nt2 nt2_nt3 nt3_nt6 nt6_np7"/>
    </vehicle>
    <vehicle id="idle_vehicle_100" type="idle_vehicle" depart="101.67207931855522">
        <route edges="np9_nt5 nt5_nt2 nt2_nt3 nt3_np5"/>
    </vehicle>
    <vehicle id="idle_vehicle_235" type="idle_vehicle" depart="102.84622868046833">
        <route edges="np2_nt2 nt2_nt5 nt5_np9"/>
    </vehicle>
    <vehicle id="idle_vehicle_84" type="idle_vehicle" depart="103.2955472258874">
        <route edges="np7_nt6 nt6_nt3 nt3_np3"/>
    </vehicle>
    <vehicle id="idle_vehicle_399" type="idle_vehicle" depart="103.5238194611253">
        <route edges="np6_nt4 nt4_nt1 nt1_nt2 nt2_nt3 nt3_np3"/>
    </vehicle>
    <vehicle id="idle_vehicle_702" type="idle_vehicle" depart="105.45210688263404">
        <route edges="np3_nt3 nt3_nt6 nt6_np10"/>
    </vehicle>
    <vehicle id="idle_vehicle_105" type="idle_vehicle" depart="106.24175438324102">
        <route edges="np4_nt1 nt1_nt4 nt4_np8"/>
    </vehicle>
    <vehicle id="idle_vehicle_125" type="idle_vehicle" depart="108.99214311069328">
        <route edges="np1_nt1 nt1_np4 np4_nt1 nt1_np1"/>
    </vehicle>
    <vehicle id="idle_vehicle_685" type="idle_vehicle" depart="109.59099724486663">
        <route edges="np7_nt6 nt6_nt5 nt5_np9"/>
    </vehicle>
    <vehicle id="idle_vehicle_797" type="idle_vehicle" depart="109.81743620784421">
        <route edges="np6_nt4 nt4_nt5 nt5_nt6 nt6_np7"/>
    </vehicle>
    <vehicle id="idle_vehicle_83" type="idle_vehicle" depart="110.52989920406446">
        <route edges="np2_nt2 nt2_nt3 nt3_nt6 nt6_np7"/>
    </vehicle>
    <vehicle id="idle_vehicle_506" type="idle_vehicle" depart="110.76539083915229">
        <route edges="np5_nt3 nt3_nt2 nt2_nt5 nt5_np9"/>
    </vehicle>
    <vehicle id="idle_vehicle_761" type="idle_vehicle" depart="113.472430731085">
        <route edges="np8_nt4 nt4_nt1 nt1_nt2 nt2_np2"/>
    </vehicle>
    <vehicle id="idle_vehicle_555" type="idle_vehicle" depart="115.0549052228163">
        <route edges="np8_nt4 nt4_np6 np6_nt4 nt4_np8"/>
    </vehicle>
    <vehicle id="idle_vehicle_390" type="idle_vehicle" depart="115.10089188062497">
        <route edges="np2_nt2 nt2_nt3 nt3_np5"/>
    </vehicle>
    <vehicle id="idle_vehicle_498" type="idle_vehicle" depart="116.10863617247497">
        <route edges="np4_nt1 nt1_nt4 nt4_np8"/>
    </vehicle>
    <vehicle id="idle_vehicle_150" type="idle_vehicle" depart="117.80913248007651">
        <route edges="np10_nt6 nt6_nt3 nt3_nt2 nt2_np2"/>
    </vehicle>
    <vehicle id="idle_vehicle_159" type="idle_vehicle" depart="117.85353548231363">
        <route edges="np9_nt5 nt5_nt2 nt2_nt3 nt3_np3"/>
    </vehicle>
    <vehicle id="idle_vehicle_172" type="idle_vehicle" depart="118.07132692502363">
        <route edges="np6_nt4 nt4_nt5 nt5_nt6 nt6_np7"/>
    </vehicle>
    <vehicle id="idle_vehicle_786" type="idle_vehicle" depart="118.32859654458278">
        <route edges="np8_nt4 nt4_nt1 nt1_np4"/>
    </vehicle>
    <vehicle id="idle_vehicle_591" type="idle_vehicle" depart="119.86243245393204">
        <route edges="np5_nt3 nt3_np3"/>
    </vehicle>
    <vehicle id="idle_vehicle_187" type="idle_vehicle" depart="120.26528929138243">
        <route edges="np4_nt1 nt1_nt4 nt4_np6"/>
    </vehicle>
    <vehicle id="idle_vehicle_669" type="idle_vehicle" depart="120.32474221425362">
        <route edges="np4_nt1 nt1_nt2 nt2_nt3 nt3_nt6 nt6_np7"/>
    </vehicle>
    <vehicle id="idle_vehicle_502" type="idle_vehicle" depart="121.60711285700572">
        <route edges="np4_nt1 nt1_nt2 nt2_nt3 nt3_np5"/>
    </vehicle>
    <vehicle id="idle_vehicle_439" type="idle_vehicle" depart="122.86936770242916">
        <route edges="np9_nt5 nt5_nt2 nt2_nt1 nt1_nt4 nt4_nt5 nt5_np9"/>
    </vehicle>
    <vehicle id="idle_vehicle_668" type="idle_vehicle" depart="122.95578344518985">
        <route edges="np3_nt3 nt3_nt2 nt2_nt1 nt1_nt4 nt4_np8"/>
    </vehicle>
    <vehicle id="idle_vehicle_419" type="idle_vehicle" depart="123.23543297492377">
        <route edges="np6_nt4 nt4_np8"/>
    </vehicle>
    <vehicle id="idle_vehicle_153" type="idle_vehicle" depart="123.55432255582697">
        <route edges="np1_nt1 nt1_nt2 nt2_nt5 nt5_np9"/>
    </vehicle>
    <vehicle id="idle_vehicle_676" type="idle_vehicle" depart="124.8433836797096">
        <route edges="np2_nt2 nt2_nt1 nt1_nt4 nt4_np6"/>
    </vehicle>
    <vehicle id="idle_vehicle_383" type="idle_vehicle" depart="125.11920933725706">
        <route edges="np9_nt5 nt5_nt2 nt2_nt1 nt1_np4"/>
    </vehicle>
    <vehicle id="idle_vehicle_827" type="idle_vehicle" depart="126.47418720454118">
        <route edges="np8_nt4 nt4_nt1 nt1_nt2 nt2_nt3 nt3_np3"/>
    </vehicle>
    <vehicle id="idle_vehicle_698" type="idle_vehicle" depart="126.60259638908533">
        <route edges="np7_nt6 nt6_nt3 nt3_np5"/>
    </vehicle>
    <vehicle id="idle_vehicle_290" type="idle_vehicle" depart="127.73415007091353">
        <route edges="np3_nt3 nt3_nt6 nt6_np10"/>
    </vehicle>
    <vehicle id="idle_vehicle_615" type="idle_vehicle" depart="128.60905826568737">
        <route edges="np7_nt6 nt6_np10 np10_nt6 nt6_np7"/>
    </vehicle>
    <vehicle id="idle_vehicle_828" type="idle_vehicle" depart="129.15505317749165">
        <route edges="np3_nt3 nt3_nt6 nt6_np10"/>
    </vehicle>
    <vehicle id="idle_vehicle_350" type="idle_vehicle" depart="129.45018982252964">
        <route edges="np1_nt1 nt1_nt2 nt2_np2"/>
    </vehicle>
    <vehicle id="idle_vehicle_433" type="idle_vehicle" depart="129.9164790257037">
        <route edges="np8_nt4 nt4_nt5 nt5_nt6 nt6_np7"/>
    </vehicle>
    <vehicle id="idle_vehicle_606" type="idle_vehicle" depart="133.7694981892125">
        <route edges="np9_nt5 nt5_nt2 nt2_nt3 nt3_np5"/>
    </vehicle>
    <vehicle id="idle_vehicle_195" type="idle_vehicle" depart="133.88168285178645">
        <route edges="np4_nt1 nt1_nt4 nt4_np6"/>
    </vehicle>
    <vehicle id="idle_vehicle_780" type="idle_vehicle" depart="134.84524125515077">
        <route edges="np3_nt3 nt3_nt2 nt2_nt5 nt5_np9"/>
    </vehicle>
    <vehicle id="idle_vehicle_474" type="idle_vehicle" depart="135.32945874608">
        <route edges="np5_nt3 nt3_nt2 nt2_nt1 nt1_np4"/>
    </vehicle>
    <vehicle id="idle_vehicle_666" type="idle_vehicle" depart="135.40420182341063">
        <route edges="np9_nt5 nt5_nt4 nt4_np6"/>
    </vehicle>
    <vehicle id="idle_vehicle_312" type="idle_vehicle" depart="138.0919153963367">
        <route edges="np7_nt6 nt6_nt3 nt3_nt2 nt2_np2"/>
    </vehicle>
    <vehicle id="idle_vehicle_313" type="idle_vehicle" depart="138.19656208681943">
        <route edges="np10_nt6 nt6_nt5 nt5_nt4 nt4_np6"/>
    </vehicle>
    <vehicle id="idle_vehicle_475" type="idle_vehicle" depart="138.19749524625254">
        <route edges="np2_nt2 nt2_nt3 nt3_nt6 nt6_np10"/>
    </vehicle>
    <vehicle id="idle_vehicle_178" type="idle_vehicle" depart="139.61724222109603">
        <route edges="np3_nt3 nt3_nt2 nt2_nt1 nt1_np4"/>
    </vehicle>
    <vehicle id="idle_vehicle_480" type="idle_vehicle" depart="141.13696092223176">
        <route edges="np1_nt1 nt1_nt4 nt4_np6"/>
    </vehicle>
    <vehicle id="idle_vehicle_165" type="idle_vehicle" depart="141.68226490381085">
        <route edges="np8_nt4 nt4_np6 np6_nt4 nt4_np8"/>
    </vehicle>
    <vehicle id="idle_vehicle_473" type="idle_vehicle" depart="142.52971314621038">
        <route edges="np4_nt1 nt1_np1"/>
    </vehicle>
    <vehicle id="idle_vehicle_652" type="idle_vehicle" depart="143.23437403911345">
        <route edges="np3_nt3 nt3_nt6 nt6_np7"/>
    </vehicle>
    <vehicle id="idle_vehicle_129" type="idle_vehicle" depart="143.9716298691371">
        <route edges="np7_nt6 nt6_np10 np10_nt6 nt6_np7"/>
    </vehicle>
    <vehicle id="idle_vehicle_712" type="idle_vehicle" depart="144.06860055357038">
        <route edges="np5_nt3 nt3_np3 np3_nt3 nt3_np5"/>
    </vehicle>
    <vehicle id="idle_vehicle_27" type="idle_vehicle" depart="145.33689393848715">
        <route edges="np6_nt4 nt4_nt1 nt1_nt2 nt2_np2"/>
    </vehicle>
    <vehicle id="idle_vehicle_127" type="idle_vehicle" depart="145.70675807798244">
        <route edges="np3_nt3 nt3_nt2 nt2_nt1 nt1_nt4 nt4_np6"/>
    </vehicle>
    <vehicle id="idle_vehicle_496" type="idle_vehicle" depart="145.8337061218856">
        <route edges="np7_nt6 nt6_nt3 nt3_nt2 nt2_nt1 nt1_np1"/>
    </vehicle>
    <vehicle id="idle_vehicle_12" type="idle_vehicle" depart="146.33442227281668">
        <route edges="np8_nt4 nt4_nt1 nt1_np4"/>
    </vehicle>
    <vehicle id="idle_vehicle_460" type="idle_vehicle" depart="146.8269275140857">
        <route edges="np1_nt1 nt1_nt2 nt2_nt3 nt3_np5"/>
    </vehicle>
    <vehicle id="idle_vehicle_237" type="idle_vehicle" depart="147.9830066964271">
        <route edges="np7_nt6 nt6_nt5 nt5_nt4 nt4_np6"/>
    </vehicle>
    <vehicle id="idle_vehicle_625" type="idle_vehicle" depart="148.43214700938745">
        <route edges="np8_nt4 nt4_np6 np6_nt4 nt4_np8"/>
    </vehicle>
    <vehicle id="idle_vehicle_272" type="idle_vehicle" depart="149.71467131106238">
        <route edges="np7_nt6 nt6_nt5 nt5_np9"/>
    </vehicle>
    <vehicle id="idle_vehicle_246" type="idle_vehicle" depart="152.37024217147868">
        <route edges="np2_nt2 nt2_nt3 nt3_nt6 nt6_np10"/>
    </vehicle>
    <vehicle id="idle_vehicle_182" type="idle_vehicle" depart="153.69935867788226">
        <route edges="np9_nt5 nt5_nt2 nt2_nt1 nt1_np1"/>
    </vehicle>
    <vehicle id="idle_vehicle_427" type="idle_vehicle" depart="158.24457647663328">
        <route edges="np10_nt6 nt6_nt3 nt3_nt2 nt2_np2"/>
    </vehicle>
    <vehicle id="idle_vehicle_792" type="idle_vehicle" depart="158.24815559787265">
        <route edges="np10_nt6 nt6_nt5 nt5_nt4 nt4_np6"/>
    </vehicle>
    <vehicle id="idle_vehicle_584" type="idle_vehicle" depart="158.2635980895062">
        <route edges="np1_nt1 nt1_nt4 nt4_np6"/>
    </vehicle>
    <vehicle id="idle_vehicle_18" type="idle_vehicle" depart="159.79086518116299">
        <route edges="np7_nt6 nt6_nt3 nt3_nt2 nt2_nt1 nt1_np4"/>
    </vehicle>
    <vehicle id="idle_vehicle_567" type="idle_vehicle" depart="160.54349790092087">
        <route edges="np4_nt1 nt1_nt2 nt2_nt3 nt3_nt6 nt6_np7"/>
    </vehicle>
    <vehicle id="idle_vehicle_283" type="idle_vehicle" depart="161.24712084936715">
        <route edges="np3_nt3 nt3_nt2 nt2_nt1 nt1_np4"/>
    </vehicle>
    <vehicle id="idle_vehicle_335" type="idle_vehicle" depart="162.83428792719602">
        <route edges="np2_nt2 nt2_nt1 nt1_np4"/>
    </vehicle>
    <vehicle id="idle_vehicle_92" type="idle_vehicle" depart="163.4911052205422">
        <route edges="np2_nt2 nt2_nt1 nt1_np1"/>
    </vehicle>
    <vehicle id="idle_vehicle_700" type="idle_vehicle" depart="164.05873532475857">
        <route edges="np2_nt2 nt2_nt1 nt1_np4"/>
    </vehicle>
    <vehicle id="idle_vehicle_793" type="idle_vehicle" depart="164.93361981644688">
        <route edges="np1_nt1 nt1_np4 np4_nt1 nt1_np1"/>
    </vehicle>
    <vehicle id="idle_vehicle_420" type="idle_vehicle" depart="165.47763348883117">
        <route edges="np7_nt6 nt6_nt3 nt3_nt2 nt2_nt1 nt1_np4"/>