<?xml version="1.0" ?>
<routes>
    <vType id="idle_vehicle" accel="2.6" decel="4.5" sigma="0.5" length="5.0" minGap="2.5" maxSpeed="15.7" carFollowModel="Krauss" tau="1.5" speedFactor="1.2" speedDev="0.8"/>
    <vType id="human_vehicle" accel="2.6" decel="4.5" sigma="0.5" length="5.0" minGap="2.5" maxSpeed="15.7" carFollowModel="Krauss" tau="1.5" speedFactor="1.2" speedDev="0.8"/>
    <vType id="leading_vehicle" accel="2.6" decel="4.5" sigma="0.5" length="5.0" minGap="2.5" maxSpeed="15.7" carFollowModel="Krauss" tau="1.5" speedFactor="1.2" speedDev="0"/>
    <vType id="following_vehicle" accel="2.6" decel="4.5" sigma="0.5" length="5.0" minGap="2.5" maxSpeed="15.7" carFollowModel="EIDM" tau="1.0" speedFactor="1.2" speedDev="0"/>
    <vehicle id="idle_vehicle_408" type="idle_vehicle" depart="0.11749800092442086">
        <route edges="np10_nt6 nt6_nt3 nt3_nt2 nt2_nt1 nt1_np1"/>
    </vehicle>
    <vehicle id="idle_vehicle_418" type="idle_vehicle" depart="1.4251205830764668">
        <route edges="np5_nt3 nt3_nt2 nt2_np2"/>
    </vehicle>
    <vehicle id="idle_vehicle_25" type="idle_vehicle" depart="6.85056634027843">
        <route edges="np5_nt3 nt3_np3"/>
    </vehicle>
    <vehicle id="idle_vehicle_122" type="idle_vehicle" depart="7.273842777092021">
        <route edges="np8_nt4 nt4_nt1 nt1_np4"/>
    </vehicle>
    <vehicle id="idle_vehicle_562" type="idle_vehicle" depart="9.392519128406907">
        <route edges="np5_nt3 nt3_nt2 nt2_nt1 nt1_np4"/>
    </vehicle>
    <vehicle id="idle_vehicle_101" type="idle_vehicle" depart="10.024327724019155">
        <route edges="np6_nt4 nt4_nt1 nt1_nt2 nt2_nt3 nt3_np3"/>
    </vehicle>
    <vehicle id="idle_vehicle_69" type="idle_vehicle" depart="11.02504567270346">
        <route edges="np3_nt3 nt3_nt6 nt6_np7"/>
    </vehicle>
    <vehicle id="idle_vehicle_588" type="idle_vehicle" depart="13.050602211443074">
        <route edges="np8_nt4 nt4_np6 np6_nt4 nt4_np8"/>
    </vehicle>
    <vehicle id="idle_vehicle_64" type="idle_vehicle" depart="15.030341171603467">
        <route edges="np2_nt2 nt2_nt1 nt1_nt4 nt4_np8"/>
    </vehicle>
    <vehicle id="idle_vehicle_345" type="idle_vehicle" depart="15.070731464239895">
        <route edges="np2_nt2 nt2_nt5 nt5_np9"/>
    </vehicle>
    <vehicle id="idle_vehicle_554" type="idle_vehicle" depart="16.12389570599939">
        <route edges="np9_nt5 nt5_nt4 nt4_np6"/>
    </vehicle>
    <vehicle id="idle_vehicle_475" type="idle_vehicle" depart="16.19343939254234">
        <route edges="np9_nt5 nt5_nt2 nt2_np2"/>
    </vehicle>
    <vehicle id="idle_vehicle_472" type="idle_vehicle" depart="17.718871418088344">
        <route edges="np6_nt4 nt4_nt1 nt1_nt2 nt2_np2"/>
    </vehicle>
    <vehicle id="idle_vehicle_236" type="idle_vehicle" depart="18.302804843856357">
        <route edges="np8_nt4 nt4_nt1 nt1_nt2 nt2_nt3 nt3_np5"/>
    </vehicle>
    <vehicle id="idle_vehicle_33" type="idle_vehicle" depart="19.47489115672667">
        <route edges="np8_nt4 nt4_nt5 nt5_nt6 nt6_np7"/>
    </vehicle>
    <vehicle id="idle_vehicle_444" type="idle_vehicle" depart="22.049396498623608">
        <route edges="np7_nt6 nt6_nt5 nt5_np9"/>
    </vehicle>
    <vehicle id="idle_vehicle_125" type="idle_vehicle" depart="22.541442636577447">
        <route edges="np5_nt3 nt3_nt2 nt2_nt5 nt5_np9"/>
    </vehicle>
    <vehicle id="idle_vehicle_537" type="idle_vehicle" depart="23.868515786922284">
        <route edges="np4_nt1 nt1_nt4 nt4_np6"/>
    </vehicle>
    <vehicle id="idle_vehicle_18" type="idle_vehicle" depart="25.762911033570912">
        <route edges="np9_nt5 nt5_nt2 nt2_nt3 nt3_np3"/>
    </vehicle>
    <vehicle id="idle_vehicle_204" type="idle_vehicle" depart="26.016658375504598">
        <route edges="np2_nt2 nt2_nt3 nt3_np3"/>
    </vehicle>
    <vehicle id="idle_vehicle_425" type="idle_vehicle" depart="28.356498363040927">
        <route edges="np7_nt6 nt6_nt3 nt3_nt2 nt2_np2"/>
    </vehicle>
    <vehicle id="idle_vehicle_409" type="idle_vehicle" depart="30.69215111701551">
        <route edges="np10_nt6 nt6_nt5 nt5_nt4 nt4_np6"/>
    </vehicle>
    <vehicle id="idle_vehicle_285" type="idle_vehicle" depart="31.952605701452352">
        <route edges="np3_nt3 nt3_nt2 nt2_nt1 nt1_np1"/>
    </vehicle>
    <vehicle id="idle_vehicle_28" type="idle_vehicle" depart="32.70334658219873">
        <route edges="np4_nt1 nt1_np1"/>
    </vehicle>
    <vehicle id="idle_vehicle_147" type="idle_vehicle" depart="33.0692242823047">
        <route edges="np9_nt5 nt5_nt6 nt6_np10"/>
    </vehicle>
    <vehicle id="idle_vehicle_576" type="idle_vehicle" depart="33.07917106841671">
        <route edges="np2_nt2 nt2_nt3 nt3_np5"/>
    </vehicle>
    <vehicle id="idle_vehicle_527" type="idle_vehicle" depart="33.36688104686027">
        <route edges="np1_nt1 nt1_np4 np4_nt1 nt1_np1"/>
    </vehicle>
    <vehicle id="idle_vehicle_48" type="idle_vehicle" depart="33.43109443018548">
        <route edges="np6_nt4 nt4_nt5 nt5_nt6 nt6_np7"/>
    </vehicle>
    <vehicle id="idle_vehicle_460" type="idle_vehicle" depart="36.61495792637632">
        <route edges="np8_nt4 nt4_nt1 nt1_nt2 nt2_nt3 nt3_np5"/>
    </vehicle>
    <vehicle id="idle_vehicle_295" type="idle_vehicle" depart="38.310490720581484">
        <route edges="np10_nt6 nt6_nt5 nt5_nt4 nt4_np8"/>
    </vehicle>
    <vehicle id="idle_vehicle_249" type="idle_vehicle" depart="39.5118153596318">
        <route edges="np10_nt6 nt6_nt3 nt3_nt2 nt2_nt1 nt1_np4"/>
    </vehicle>
    <vehicle id="idle_vehicle_37" type="idle_vehicle" depart="40.139358681802584">
        <route edges="np3_nt3 nt3_nt2 nt2_np2"/>
    </vehicle>
    <vehicle id="idle_vehicle_123" type="idle_vehicle" depart="40.367624662518594">
        <route edges="np2_nt2 nt2_nt5 nt5_np9"/>
    </vehicle>
    <vehicle id="idle_vehicle_286" type="idle_vehicle" depart="42.320789566343905">
        <route edges="np8_nt4 nt4_nt5 nt5_np9"/>
    </vehicle>
    <vehicle id="idle_vehicle_127" type="idle_vehicle" depart="45.01197947920508">
        <route edges="np5_nt3 nt3_nt6 nt6_np10"/>
    </vehicle>
    <vehicle id="idle_vehicle_250" type="idle_vehicle" depart="45.113656922315926">
        <route edges="np8_nt4 nt4_np6"/>
    </vehicle>
    <vehicle id="idle_vehicle_173" type="idle_vehicle" depart="45.77951499382182">
        <route edges="np3_nt3 nt3_nt2 nt2_np2"/>
    </vehicle>
    <vehicle id="idle_vehicle_362" type="idle_vehicle" depart="45.8157335522511">
        <route edges="np1_nt1 nt1_np4 np4_nt1 nt1_np1"/>
    </vehicle>
    <vehicle id="idle_vehicle_7" type="idle_vehicle" depart="48.09635616458161">
        <route edges="np4_nt1 nt1_nt4 nt4_np6"/>
    </vehicle>
    <vehicle id="idle_vehicle_13" type="idle_vehicle" depart="51.2928342507438">
        <route edges="np10_nt6 nt6_np7"/>
    </vehicle>
    <vehicle id="idle_vehicle_251" type="idle_vehicle" depart="51.678523692229476">
        <route edges="np2_nt2 nt2_nt1 nt1_np1"/>
    </vehicle>
    <vehicle id="idle_vehicle_269" type="idle_vehicle" depart="52.115136473049084">
        <route edges="np8_nt4 nt4_nt1 nt1_nt2 nt2_np2"/>
    </vehicle>
    <vehicle id="idle_vehicle_95" type="idle_vehicle" depart="54.57202126881269">
        <route edges="np8_nt4 nt4_nt1 nt1_nt2 nt2_nt3 nt3_np3"/>
    </vehicle>
    <vehicle id="idle_vehicle_462" type="idle_vehicle" depart="54.90835086944115">
        <route edges="np5_nt3 nt3_nt6 nt6_np10"/>
    </vehicle>
    <vehicle id="idle_vehicle_561" type="idle_vehicle" depart="55.27017224130901">
        <route edges="np9_nt5 nt5_nt2 nt2_nt1 nt1_nt4 nt4_nt5 nt5_np9"/>
    </vehicle>
    <vehicle id="idle_vehicle_211" type="idle_vehicle" depart="56.144780059935684">
        <route edges="np4_nt1 nt1_nt2 nt2_nt5 nt5_np9"/>
    </vehicle>
    <vehicle id="idle_vehicle_266" type="idle_vehicle" depart="57.87215718701448">
        <route edges="np5_nt3 nt3_np3 np3_nt3 nt3_np5"/>
    </vehicle>
    <vehicle id="idle_vehicle_597" type="idle_vehicle" depart="59.04049528985959">
        <route edges="np4_nt1 nt1_nt2 nt2_np2"/>
    </vehicle>
    <vehicle id="idle_vehicle_407" type="idle_vehicle" depart="65.91988327707882">
        <route edges="np3_nt3 nt3_nt2 nt2_nt1 nt1_nt4 nt4_np8"/>
    </vehicle>
    <vehicle id="idle_vehicle_246" type="idle_vehicle" depart="65.98967812914465">
        <route edges="np6_nt4 nt4_nt5 nt5_nt6 nt6_np7"/>
    </vehicle>
    <vehicle id="idle_vehicle_97" type="idle_vehicle" depart="66.85144335591247">
        <route edges="np3_nt3 nt3_nt2 nt2_nt1 nt1_nt4 nt4_np8"/>
    </vehicle>
    <vehicle id="idle_vehicle_232" type="idle_vehicle" depart="66.87518683443105">
        <route edges="np10_nt6 nt6_nt5 nt5_nt4 nt4_np8"/>
    </vehicle>
    <vehicle id="idle_vehicle_247" type="idle_vehicle" depart="66.8976213835486">
        <route edges="np3_nt3 nt3_nt2 nt2_nt1 nt1_nt4 nt4_np8"/>
    </vehicle>
    <vehicle id="idle_vehicle_5" type="idle_vehicle" depart="67.35404963411389">
        <route edges="np2_nt2 nt2_nt1 nt1_nt4 nt4_np8"/>
    </vehicle>
    <vehicle id="idle_vehicle_509" type="idle_vehicle" depart="67.36029551258049">
        <route edges="np4_nt1 nt1_nt4 nt4_np8"/>
    </vehicle>
    <vehicle id="idle_vehicle_276" type="idle_vehicle" depart="70.74670958194007">
        <route edges="np7_nt6 nt6_nt5 nt5_np9"/>
    </vehicle>
    <vehicle id="idle_vehicle_586" type="idle_vehicle" depart="70.81823558504308">
        <route edges="np1_nt1 nt1_nt4 nt4_np8"/>
    </vehicle>
    <vehicle id="idle_vehicle_195" type="idle_vehicle" depart="73.90641144685794">
        <route edges="np4_nt1 nt1_nt2 nt2_nt3 nt3_nt6 nt6_np7"/>
    </vehicle>
    <vehicle id="idle_vehicle_532" type="idle_vehicle" depart="76.75367192426697">
        <route edges="np3_nt3 nt3_nt6 nt6_np7"/>
    </vehicle>
    <vehicle id="idle_vehicle_328" type="idle_vehicle" depart="77.84982618131701">
        <route edges="np1_nt1 nt1_np4 np4_nt1 nt1_np1"/>
    </vehicle>
    <vehicle id="idle_vehicle_223" type="idle_vehicle" depart="80.13779709727275">
        <route edges="np9_nt5 nt5_nt2 nt2_np2"/>
    </vehicle>
    <vehicle id="idle_vehicle_188" type="idle_vehicle" depart="81.15490880506746">
        <route edges="np1_nt1 nt1_nt4 nt4_np6"/>
    </vehicle>
    <vehicle id="idle_vehicle_556" type="idle_vehicle" depart="83.12670057854028">
        <route edges="np9_nt5 nt5_nt4 nt4_np6"/>
    </vehicle>
    <vehicle id="idle_vehicle_461" type="idle_vehicle" depart="83.61889990328457">
        <route edges="np6_nt4 nt4_nt1 nt1_nt2 nt2_nt3 nt3_np3"/>
    </vehicle>
    <vehicle id="idle_vehicle_134" type="idle_vehicle" depart="84.10570548317749">
        <route edges="np2_nt2 nt2_nt3 nt3_np3"/>
    </vehicle>
    <vehicle id="idle_vehicle_366" type="idle_vehicle" depart="86.01803882101234">
        <route edges="np5_nt3 nt3_np3 np3_nt3 nt3_np5"/>
    </vehicle>
    <vehicle id="idle_vehicle_584" type="idle_vehicle" depart="86.8882605885279">
        <route edges="np1_nt1 nt1_nt4 nt4_np6"/>
    </vehicle>
    <vehicle id="idle_vehicle_280" type="idle_vehicle" depart="87.07857743866576">
        <route edges="np4_nt1 nt1_np1 np1_nt1 nt1_np4"/>
    </vehicle>
    <vehicle id="idle_vehicle_399" type="idle_vehicle" depart="87.33234651939945">
        <route edges="np10_nt6 nt6_nt5 nt5_nt4 nt4_np8"/>
    </vehicle>
    <vehicle id="idle_vehicle_580" type="idle_vehicle" depart="90.09593310454207">
        <route edges="np8_nt4 nt4_nt5 nt5_np9"/>
    </vehicle>
    <vehicle id="idle_vehicle_575" type="idle_vehicle" depart="91.33990344379211">
        <route edges="np6_nt4 nt4_nt1 nt1_nt2 nt2_nt3 nt3_np3"/>
    </vehicle>
    <vehicle id="idle_vehicle_35" type="idle_vehicle" depart="92.92418336260253">
        <route edges="np7_nt6 nt6_nt3 nt3_np3"/>
    </vehicle>
    <vehicle id="idle_vehicle_71" type="idle_vehicle" depart="95.04420032529914">
        <route edges="np3_nt3 nt3_np5 np5_nt3 nt3_np3"/>
    </vehicle>
    <vehicle id="idle_vehicle_582" type="idle_vehicle" depart="97.31335234407226">
        <route edges="np10_nt6 nt6_nt5 nt5_nt4 nt4_np8"/>
    </vehicle>
    <vehicle id="idle_vehicle_100" type="idle_vehicle" depart="98.47693856969056">
        <route edges="np4_nt1 nt1_nt2 nt2_nt3 nt3_nt6 nt6_np7"/>
    </vehicle>
    <vehicle id="idle_vehicle_240" type="idle_vehicle" depart="98.96443347579229">
        <route edges="np1_nt1 nt1_nt4 nt4_np6"/>
    </vehicle>
    <vehicle id="idle_vehicle_540" type="idle_vehicle" depart="99.26394824243002">
        <route edges="np1_nt1 nt1_nt4 nt4_np8"/>
    </vehicle>
    <vehicle id="idle_vehicle_90" type="idle_vehicle" depart="99.97481077709986">
        <route edges="np8_nt4 nt4_nt5 nt5_nt6 nt6_np7"/>
    </vehicle>
    <vehicle id="idle_vehicle_272" type="idle_vehicle" depart="100.33339908691694">
        <route edges="np1_nt1 nt1_np4"/>
    </vehicle>
    <vehicle id="idle_vehicle_440" type="idle_vehicle" depart="100.50114772698188">
        <route edges="np10_nt6 nt6_nt3 nt3_np3"/>
    </vehicle>
    <vehicle id="idle_vehicle_311" type="idle_vehicle" depart="100.96216932545899">
        <route edges="np3_nt3 nt3_nt2 nt2_nt5 nt5_np9"/>
    </vehicle>
    <vehicle id="idle_vehicle_145" type="idle_vehicle" depart="105.50180506232438">
        <route edges="np8_nt4 nt4_nt5 nt5_nt6 nt6_np10"/>
    </vehicle>
    <vehicle id="idle_vehicle_224" type="idle_vehicle" depart="106.0503608955207">
        <route edges="np10_nt6 nt6_nt3 nt3_nt2 nt2_nt1 nt1_np4"/>
    </vehicle>
    <vehicle id="idle_vehicle_368" type="idle_vehicle" depart="106.16856064528619">
        <route edges="np9_nt5 nt5_nt4 nt4_np6"/>
    </vehicle>
    <vehicle id="idle_vehicle_358" type="idle_vehicle" depart="106.97393104239951">
        <route edges="np1_nt1 nt1_nt4 nt4_np6"/>
    </vehicle>
    <vehicle id="idle_vehicle_40" type="idle_vehicle" depart="109.17721991348542">
        <route edges="np7_nt6 nt6_nt3 nt3_nt2 nt2_np2"/>
    </vehicle>
    <vehicle id="idle_vehicle_433" type="idle_vehicle" depart="109.28293335965158">
        <route edges="np4_nt1 nt1_nt4 nt4_np6"/>
    </vehicle>
    <vehicle id="idle_vehicle_314" type="idle_vehicle" depart="110.53246357748057">
        <route edges="np3_nt3 nt3_nt2 nt2_nt5 nt5_np9"/>
    </vehicle>
    <vehicle id="idle_vehicle_29" type="idle_vehicle" depart="111.10699331642691">
        <route edges="np8_nt4 nt4_nt1 nt1_np4"/>
    </vehicle>
    <vehicle id="idle_vehicle_23" type="idle_vehicle" depart="111.34410299572748">
        <route edges="np3_nt3 nt3_nt2 nt2_nt1 nt1_np1"/>
    </vehicle>
    <vehicle id="idle_vehicle_98" type="idle_vehicle" depart="112.68067651805245">
        <route edges="np8_nt4 nt4_nt1 nt1_np4"/>
    </vehicle>
    <vehicle id="idle_vehicle_348" type="idle_vehicle" depart="114.75876957992864">
        <route edges="np9_nt5 nt5_nt2 nt2_nt3 nt3_np3"/>
    </vehicle>
    <vehicle id="idle_vehicle_11" type="idle_vehicle" depart="116.22290037364537">
        <route edges="np6_nt4 nt4_nt1 nt1_nt2 nt2_np2"/>
    </vehicle>
    <vehicle id="idle_vehicle_548" type="idle_vehicle" depart="116.88009637106136">
        <route edges="np2_nt2 nt2_nt1 nt1_nt4 nt4_np8"/>
    </vehicle>
    <vehicle id="idle_vehicle_154" type="idle_vehicle" depart="117.7487340142477">
        <route edges="np8_nt4 nt4_nt1 nt1_nt2 nt2_nt3 nt3_np3"/>
    </vehicle>
    <vehicle id="idle_vehicle_520" type="idle_vehicle" depart="121.09157211331532">
        <route edges="np3_nt3 nt3_nt2 nt2_nt5 nt5_np9"/>
    </vehicle>
    <vehicle id="idle_vehicle_248" type="idle_vehicle" depart="124.85173754629511">
        <route edges="np3_nt3 nt3_nt6 nt6_np7"/>
    </vehicle>
    <vehicle id="idle_vehicle_57" type="idle_vehicle" depart="125.72687648343673">
        <route edges="np3_nt3 nt3_nt2 nt2_nt1 nt1_nt4 nt4_np8"/>
    </vehicle>
    <vehicle id="idle_vehicle_394" type="idle_vehicle" depart="130.28307284218954">
        <route edges="np4_nt1 nt1_nt2 nt2_nt3 nt3_nt6 nt6_np7"/>
    </vehicle>
    <vehicle id="idle_vehicle_500" type="idle_vehicle" depart="130.5954809210365">
        <route edges="np1_nt1 nt1_nt2 nt2_nt3 nt3_nt6 nt6_np7"/>
    </vehicle>
    <vehicle id="idle_vehicle_274" type="idle_vehicle" depart="131.03468392131506">
        <route edges="np2_nt2 nt2_nt5 nt5_np9"/>
    </vehicle>
    <vehicle id="idle_vehicle_21" type="idle_vehicle" depart="131.49774679658296">
        <route edges="np8_nt4 nt4_nt1 nt1_nt2 nt2_nt3 nt3_np5"/>
    </vehicle>
    <vehicle id="idle_vehicle_201" type="idle_vehicle" depart="133.82543862148228">
        <route edges="np10_nt6 nt6_nt3 nt3_nt2 nt2_nt1 nt1_np1"/>
    </vehicle>
    <vehicle id="idle_vehicle_68" type="idle_vehicle" depart="134.29456775959886">
        <route edges="np2_nt2 nt2_nt1 nt1_nt4 nt4_np8"/>
    </vehicle>
    <vehicle id="idle_vehicle_300" type="idle_vehicle" depart="134.33714565333867">
        <route edges="np10_nt6 nt6_np7"/>
    </vehicle>
    <vehicle id="idle_vehicle_495" type="idle_vehicle" depart="134.4597352739993">
        <route edges="np5_nt3 nt3_nt2 nt2_nt1 nt1_np4"/>
    </vehicle>
    <vehicle id="idle_vehicle_592" type="idle_vehicle" depart="136.33573617473155">
        <route edges="np4_nt1 nt1_nt2 nt2_nt3 nt3_np5"/>
    </vehicle>
    <vehicle id="idle_vehicle_338" type="idle_vehicle" depart="137.08881143044528">
        <route edges="np9_nt5 nt5_nt2 nt2_np2"/>
    </vehicle>
    <vehicle id="idle_vehicle_373" type="idle_vehicle" depart="138.10421534804726">
        <route edges="np1_nt1 nt1_nt2 nt2_np2"/>
    </vehicle>
    <vehicle id="idle_vehicle_587" type="idle_vehicle" depart="139.5920322405222">
        <route edges="np5_nt3 nt3_nt6 nt6_np10"/>
    </vehicle>
    <vehicle id="idle_vehicle_322" type="idle_vehicle" depart="139.87705275229308">
        <route edges="np3_nt3 nt3_nt2 nt2_nt1 nt1_np4"/>
    </vehicle>
    <vehicle id="idle_vehicle_543" type="idle_vehicle" depart="142.22268748822754">
        <route edges="np2_nt2 nt2_nt1 nt1_nt4 nt4_np8"/>
    </vehicle>
    <vehicle id="idle_vehicle_579" type="idle_vehicle" depart="147.7193683722051">
        <route edges="np9_nt5 nt5_nt2 nt2_np2"/>
    </vehicle>
    <vehicle id="idle_vehicle_20" type="idle_vehicle" depart="148.27632827831448">
        <route edges="np5_nt3 nt3_nt2 nt2_nt1 nt1_nt4 nt4_np6"/>
    </vehicle>
    <vehicle id="idle_vehicle_479" type="idle_vehicle" depart="148.8524660083453">
        <route edges="np8_nt4 nt4_nt5 nt5_np9"/>
    </vehicle>
    <vehicle id="idle_vehicle_400" type="idle_vehicle" depart="149.4104621265701">
        <route edges="np2_nt2 nt2_nt1 nt1_np4"/>
    </vehicle>
    <vehicle id="idle_vehicle_270" type="idle_vehicle" depart="150.31403484848437">
        <route edges="np1_nt1 nt1_nt2 nt2_nt5 nt5_np9"/>
    </vehicle>
    <vehicle id="idle_vehicle_344" type="idle_vehicle" depart="150.84871377840895">
        <route edges="np9_nt5 nt5_nt4 nt4_np6"/>
    </vehicle>
    <vehicle id="idle_vehicle_281" type="idle_vehicle" depart="151.62024172995032">
        <route edges="np6_nt4 nt4_nt1 nt1_nt2 nt2_nt3 nt3_np3"/>
    </vehicle>
    <vehicle id="idle_vehicle_437" type="idle_vehicle" depart="155.5205789376238">
        <route edges="np3_nt3 nt3_nt2 nt2_nt1 nt1_nt4 nt4_np6"/>
    </vehicle>
    <vehicle id="idle_vehicle_38" type="idle_vehicle" depart="158.46948238961494">
        <route edges="np8_nt4 nt4_nt5 nt5_nt6 nt6_np7"/>
    </vehicle>
    <vehicle id="idle_vehicle_455" type="idle_vehicle" depart="158.9754584286265">
        <route edges="np10_nt6 nt6_np7 np7_nt6 nt6_np10"/>
    </vehicle>
    <vehicle id="idle_vehicle_187" type="idle_vehicle" depart="160.34928065180986">
        <route edges="np1_nt1 nt1_nt2 nt2_nt3 nt3_np5"/>
    </vehicle>
    <vehicle id="idle_vehicle_193" type="idle_vehicle" depart="161.3113923518821">
        <route edges="np9_nt5 nt5_nt2 nt2_np2"/>
    </vehicle>
    <vehicle id="idle_vehicle_176" type="idle_vehicle" depart="161.48387983295729">
        <route edges="np2_nt2 nt2_nt3 nt3_np5"/>
    </vehicle>
    <vehicle id="idle_vehicle_395" type="idle_vehicle" depart="162.87563827977795">
        <route edges="np9_nt5 nt5_nt2 nt2_nt1 nt1_np1"/>
    </vehicle>
    <vehicle id="idle_vehicle_471" type="idle_vehicle" depart="163.2752874362456">
        <route edges="np6_nt4 nt4_nt1 nt1_nt2 nt2_nt3 nt3_np3"/>
    </vehicle>
    <vehicle id="idle_vehicle_330" type="idle_vehicle" depart="163.47303923248217">
        <route edges="np10_nt6 nt6_nt3 nt3_nt2 nt2_np2"/>
    </vehicle>
    <vehicle id="idle_vehicle_478" type="idle_vehicle" depart="163.93860929147567">
        <route edges="np4_nt1 nt1_np1"/>
    </vehicle>
    <vehicle id="idle_vehicle_141" type="idle_vehicle" depart="164.5341489559499">
        <route edges="np8_nt4 nt4_nt1 nt1_nt2 nt2_nt3 nt3_np5"/>
    </vehicle>
    <vehicle id="idle_vehicle_378" type="idle_vehicle" depart="165.11489519426883">
        <route edges="np7_nt6 nt6_nt3 nt3_nt2 nt2_np2"/>
    </vehicle>
    <vehicle id="idle_vehicle_175" type="idle_vehicle" depart="165.3778457889053">
        <route edges="np8_nt4 nt4_nt1 nt1_nt2 nt2_nt3 nt3_np3"/>
    </vehicle>
    <vehicle id="idle_vehicle_80" type="idle_vehicle" depart="165.51355041122608">
        <route edges="np7_nt6 nt6_nt3 nt3_np5"/>
    </vehicle>
    <vehicle id="idle_vehicle_549" type="idle_vehicle" depart="165.85438984309704">
        <route edges="np1_nt1 nt1_nt2 nt2_np2"/>
    </vehicle>
    <vehicle id="idle_vehicle_508" type="idle_vehicle" depart="167.66490162532293">
        <route edges="np8_nt4 nt4_nt5 nt5_np9"/>
    </vehicle>
    <vehicle id="idle_vehicle_459" type="idle_vehicle" depart="168.1369541823199">
        <route edges="np7_nt6 nt6_nt3 nt3_np3"/>
    </vehicle>
    <vehicle id="idle_vehicle_333" type="idle_vehicle" depart="168.54867856233005">
        <route edges="np10_nt6 nt6_np7"/>
    </vehicle>
    <vehicle id="idle_vehicle_14" type="idle_vehicle" depart="168.78085836247817">
        <route edges="np9_nt5 nt5_nt4 nt4_np8"/>
    </vehicle>
    <vehicle id="idle_vehicle_525" type="idle_vehicle" depart="172.34204536392497">
        <route edges="np5_nt3 nt3_nt2 nt2_nt1 nt1_np4"/>
    </vehicle>
    <vehicle id="idle_vehicle_323" type="idle_vehicle" depart="173.06661401256315">
        <route edges="np2_nt2 nt2_nt1 nt1_nt4 nt4_np8"/>
    </vehicle>
    <vehicle id="idle_vehicle_288" type="idle_vehicle" depart="173.08350587857166">
        <route edges="np4_nt1 nt1_nt2 nt2_nt3 nt3_np5"/>
    </vehicle>
    <vehicle id="idle_vehicle_564" type="idle_vehicle" depart="173.4507974287185">
        <route edges="np5_nt3 nt3_nt2 nt2_nt1 nt1_nt4 nt4_np8"/>
    </vehicle>
    <vehicle id="idle_vehicle_77" type="idle_vehicle" depart="178.18121276870392">
        <route edges="np1_nt1 nt1_np4 np4_nt1 nt1_np1"/>
    </vehicle>
    <vehicle id="idle_vehicle_356" type="idle_vehicle" depart="179.82715388452394">
        <route edges="np9_nt5 nt5_nt2 nt2_np2"/>
    </vehicle>
    <vehicle id="idle_vehicle_296" type="idle_vehicle" depart="179.90943037502342">
        <route edges="np8_nt4 nt4_nt5 nt5_np9"/>
    </vehicle>
    <vehicle id="idle_vehicle_222" type="idle_vehicle" depart="182.83257587728548">
        <route edges="np4_nt1 nt1_nt2 nt2_nt3 nt3_nt6 nt6_np10"/>
    </vehicle>
    <vehicle id="idle_vehicle_84" type="idle_vehicle" depart="183.5843492421283">
        <route edges="np6_nt4 nt4_nt5 nt5_np9"/>
    </vehicle>
    <vehicle id="idle_vehicle_423" type="idle_vehicle" depart="184.81897591679478">
        <route edges="np8_nt4 nt4_nt1 nt1_np1"/>
    </vehicle>
    <vehicle id="idle_vehicle_436" type="idle_vehicle" depart="184.82739870316377">
        <route edges="np10_nt6 nt6_nt3 nt3_np5"/>
    </vehicle>
    <vehicle id="idle_vehicle_107" type="idle_vehicle" depart="186.11214862125553">
        <route edges="np7_nt6 nt6_np10 np10_nt6 nt6_np7"/>
    </vehicle>
    <vehicle id="idle_vehicle_454" type="idle_vehicle" depart="186.29191031465675">
        <route edges="np10_nt6 nt6_nt3 nt3_nt2 nt2_nt1 nt1_np4"/>
    </vehicle>
    <vehicle id="idle_vehicle_268" type="idle_vehicle" depart="187.2350438233192">
        <route edges="np3_nt3 nt3_nt2 nt2_nt1 nt1_nt4 nt4_np6"/>
    </vehicle>
    <vehicle id="idle_vehicle_403" type="idle_vehicle" depart="189.57362108922916">
        <route edges="np1_nt1 nt1_np4"/>
    </vehicle>
    <vehicle id="idle_vehicle_146" type="idle_vehicle" depart="189.9933261759033">
        <route edges="np2_nt2 nt2_nt3 nt3_nt6 nt6_np7"/>
    </vehicle>
    <vehicle id="idle_vehicle_427" type="idle_vehicle" depart="191.20792053902596">
        <route edges="np6_nt4 nt4_nt1 nt1_nt2 nt2_nt3 nt3_np3"/>
    </vehicle>
    <vehicle id="idle_vehicle_429" type="idle_vehicle" depart="191.28497580907782">
        <route edges="np6_nt4 nt4_np8 np8_nt4 nt4_np6"/>
    </vehicle>
    <vehicle id="idle_vehicle_50" type="idle_vehicle" depart="191.60364260641688">
        <route edges="np6_nt4 nt4_nt1 nt1_nt2 nt2_nt3 nt3_np3"/>
    </vehicle>
    <vehicle id="idle_vehicle_313" type="idle_vehicle" depart="191.7628957804885">
        <route edges="np3_nt3 nt3_nt2 nt2_nt1 nt1_np4"/>
    </vehicle>
    <vehicle id="idle_vehicle_94" type="idle_vehicle" depart="191.96511192540856">
        <route edges="np1_nt1 nt1_np4"/>
    </vehicle>
    <vehicle id="idle_vehicle_416" type="idle_vehicle" depart="192.09724007604433">
        <route edges="np8_nt4 nt4_np6 np6_nt4 nt4_np8"/>
    </vehicle>
    <vehicle id="idle_vehicle_380" type="idle_vehicle" depart="192.41233208800227">
        <route edges="np2_nt2 nt2_nt1 nt1_np4"/>
    </vehicle>
    <vehicle id="idle_vehicle_574" type="idle_vehicle" depart="193.00944004966914">
        <route edges="np10_nt6 nt6_nt3 nt3_nt2 nt2_nt1 nt1_np4"/>
    </vehicle>
    <vehicle id="idle_vehicle_44" type="idle_vehicle" depart="193.81579008643843">
        <route edges="np8_nt4 nt4_nt5 nt5_np9"/>
    </vehicle>
    <vehicle id="idle_vehicle_315" type="idle_vehicle" depart="194.98659522200583">
        <route edges="np6_nt4 nt4_nt1 nt1_nt2 nt2_nt3 nt3_np3"/>
    </vehicle>
    <vehicle id="idle_vehicle_99" type="idle_vehicle" depart="195.3115100865129">
        <route edges="np8_nt4 nt4_nt1 nt1_nt2 nt2_nt3 nt3_np3"/>
    </vehicle>
    <vehicle id="idle_vehicle_260" type="idle_vehicle" depart="195.83336670046006">
        <route edges="np5_nt3 nt3_np3 np3_nt3 nt3_np5"/>
    </vehicle>
    <vehicle id="idle_vehicle_200" type="idle_vehicle" depart="196.06857901993652">
        <route edges="np6_nt4 nt4_np8"/>
    </vehicle>
    <vehicle id="idle_vehicle_289" type="idle_vehicle" depart="198.27395376088415">
        <route edges="np6_nt4 nt4_nt5 nt5_nt6 nt6_np7"/>
    </vehicle>
    <vehicle id="idle_vehicle_103" type="idle_vehicle" depart="200.65923667572534">
        <route edges="np10_nt6 nt6_nt3 nt3_nt2 nt2_nt1 nt1_np1"/>
    </vehicle>
    <vehicle id="idle_vehicle_216" type="idle_vehicle" depart="201.53527343029685">
        <route edges="np1_nt1 nt1_nt2 nt2_nt3 nt3_np5"/>
    </vehicle>
    <vehicle id="idle_vehicle_415" type="idle_vehicle" depart="201.72100646716754">
        <route edges="np2_nt2 nt2_nt3 nt3_nt6 nt6_np10"/>
    </vehicle>
    <vehicle id="idle_vehicle_332" type="idle_vehicle" depart="203.71201278890086">
        <route edges="np5_nt3 nt3_nt2 nt2_nt1 nt1_nt4 nt4_np8"/>
    </vehicle>
    <vehicle id="idle_vehicle_34" type="idle_vehicle" depart="204.13974683809533">
        <route edges="np9_nt5 nt5_nt2 nt2_nt1 nt1_np1"/>
    </vehicle>
    <vehicle id="idle_vehicle_463" type="idle_vehicle" depart="205.5812993249118">
        <route edges="np8_nt4 nt4_nt1 nt1_np1"/>
    </vehicle>
    <vehicle id="idle_vehicle_297" type="idle_vehicle" depart="207.5795340103724">
        <route edges="np9_nt5 nt5_nt2 nt2_nt3 nt3_np3"/>
    </vehicle>
    <vehicle id="idle_vehicle_139" type="idle_vehicle" depart="208.08617741031316">
        <route edges="np8_nt4 nt4_nt5 nt5_nt6 nt6_np10"/>
    </vehicle>
    <vehicle id="idle_vehicle_140" type="idle_vehicle" depart="208.3159379236837">
        <route edges="np2_nt2 nt2_nt1 nt1_nt4 nt4_np8"/>
    </vehicle>
    <vehicle id="idle_vehicle_87" type="idle_vehicle" depart="211.7913809443027">
        <route edges="np9_nt5 nt5_nt4 nt4_np8"/>
    </vehicle>
    <vehicle id="idle_vehicle_157" type="idle_vehicle" depart="212.72016605417497">
        <route edges="np5_nt3 nt3_nt2 nt2_np2"/>
    </vehicle>
    <vehicle id="idle_vehicle_566" type="idle_vehicle" depart="212.80161655145554">
        <route edges="np1_nt1 nt1_nt2 nt2_np2"/>
    </vehicle>
    <vehicle id="idle_vehicle_49" type="idle_vehicle" depart="213.60518938184353">
        <route edges="np9_nt5 nt5_nt4 nt4_np6"/>
    </vehicle>
    <vehicle id="idle_vehicle_219" type="idle_vehicle" depart="214.67056345860237">
        <route edges="np4_nt1 nt1_nt2 nt2_nt3 nt3_np5"/>
    </vehicle>
    <vehicle id="idle_vehicle_571" type="idle_vehicle" depart="215.02290283733458">
        <route edges="np10_nt6 nt6_np7 np7_nt6 nt6_np10"/>
    </vehicle>
    <vehicle id="idle_vehicle_340" type="idle_vehicle" depart="215.25971602807888">
        <route edges="np6_nt4 nt4_nt1 nt1_nt2 nt2_np2"/>
    </vehicle>
    <vehicle id="idle_vehicle_130" type="idle_vehicle" depart="215.4409825284298">
        <route edges="np8_nt4 nt4_nt5 nt5_nt6 nt6_np7"/>
    </vehicle>
    <vehicle id="idle_vehicle_359" type="idle_vehicle" depart="215.47111606017575">
        <route edges="np7_nt6 nt6_nt3 nt3_nt2 nt2_nt1 nt1_np1"/>
    </vehicle>
    <vehicle id="idle_vehicle_4" type="idle_vehicle" depart="218.46648261628746">
        <route edges="np5_nt3 nt3_nt2 nt2_nt1 nt1_nt4 nt4_np6"/>
    </vehicle>