<?xml version="1.0" ?>
<routes>
    <vType id="idle_vehicle" accel="2.6" decel="4.5" sigma="0.5" length="5.0" minGap="2.5" maxSpeed="15.7" carFollowModel="Krauss" tau="1.5" speedFactor="1.2" speedDev="0.8"/>
    <vType id="human_vehicle" accel="2.6" decel="4.5" sigma="0.5" length="5.0" minGap="2.5" maxSpeed="15.7" carFollowModel="Krauss" tau="1.5" speedFactor="1.2" speedDev="0.8"/>
    <vType id="leading_vehicle" accel="2.6" decel="4.5" sigma="0.5" length="5.0" minGap="2.5" maxSpeed="15.7" carFollowModel="Krauss" tau="1.5" speedFactor="1.2" speedDev="0"/>
    <vType id="following_vehicle" accel="2.6" decel="4.5" sigma="0.5" length="5.0" minGap="2.5" maxSpeed="15.7" carFollowModel="EIDM" tau="1.0" speedFactor="1.2" speedDev="0"/>
    <vehicle id="idle_vehicle_64" type="idle_vehicle" depart="1.8981891205222645">
        <route edges="np7_nt6 nt6_np10 np10_nt6 nt6_np7"/>
    </vehicle>
    <vehicle id="idle_vehicle_152" type="idle_vehicle" depart="10.141568235529874">
        <route edges="np1_nt1 nt1_nt2 nt2_nt3 nt3_nt6 nt6_np7"/>
    </vehicle>
    <vehicle id="idle_vehicle_25" type="idle_vehicle" depart="15.128688927646827">
        <route edges="np7_nt6 nt6_nt5 nt5_nt4 nt4_np8"/>
    </vehicle>
    <vehicle id="idle_vehicle_61" type="idle_vehicle" depart="16.495998596348294">
        <route edges="np6_nt4 nt4_nt1 nt1_nt2 nt2_nt3 nt3_np3"/>
    </vehicle>
    <vehicle id="idle_vehicle_159" type="idle_vehicle" depart="19.066626778735962">
        <route edges="np5_nt3 nt3_nt2 nt2_nt1 nt1_nt4 nt4_np8"/>
    </vehicle>
    <vehicle id="idle_vehicle_59" type="idle_vehicle" depart="19.120365180232124">
        <route edges="np8_nt4 nt4_nt5 nt5_nt6 nt6_np7"/>
    </vehicle>
    <vehicle id="idle_vehicle_24" type="idle_vehicle" depart="21.82433172658964">
        <route edges="np10_nt6 nt6_np7"/>
    </vehicle>
    <vehicle id="idle_vehicle_90" type="idle_vehicle" depart="22.228472916543218">
        <route edges="np5_nt3 nt3_nt6 nt6_np7"/>
    </vehicle>
    <vehicle id="idle_vehicle_95" type="idle_vehicle" depart="24.104428452168314">
        <route edges="np6_nt4 nt4_np8 np8_nt4 nt4_np6"/>
    </vehicle>
    <vehicle id="idle_vehicle_158" type="idle_vehicle" depart="24.613160595153527">
        <route edges="np2_nt2 nt2_nt1 nt1_nt4 nt4_np8"/>
    </vehicle>
    <vehicle id="idle_vehicle_3" type="idle_vehicle" depart="25.92458165807221">
        <route edges="np10_nt6 nt6_np7"/>
    </vehicle>
    <vehicle id="idle_vehicle_67" type="idle_vehicle" depart="26.11101785504042">
        <route edges="np4_nt1 nt1_nt2 nt2_nt3 nt3_nt6 nt6_np10"/>
    </vehicle>
    <vehicle id="idle_vehicle_141" type="idle_vehicle" depart="44.06635310806797">
        <route edges="np7_nt6 nt6_nt3 nt3_np3"/>
    </vehicle>
    <vehicle id="idle_vehicle_137" type="idle_vehicle" depart="44.15251634342327">
        <route edges="np2_nt2 nt2_nt3 nt3_nt6 nt6_np10"/>
    </vehicle>
    <vehicle id="idle_vehicle_123" type="idle_vehicle" depart="46.81473094538973">
        <route edges="np6_nt4 nt4_np8"/>
    </vehicle>
    <vehicle id="idle_vehicle_207" type="idle_vehicle" depart="48.563989783533756">
        <route edges="np3_nt3 nt3_nt2 nt2_np2"/>
    </vehicle>
    <vehicle id="idle_vehicle_112" type="idle_vehicle" depart="53.99967559254559">
        <route edges="np5_nt3 nt3_nt2 nt2_nt1 nt1_np1"/>
    </vehicle>
    <vehicle id="idle_vehicle_188" type="idle_vehicle" depart="59.27643148435511">
        <route edges="np5_nt3 nt3_nt2 nt2_nt1 nt1_nt4 nt4_np6"/>
    </vehicle>
    <vehicle id="idle_vehicle_160" type="idle_vehicle" depart="60.74704225108833">
        <route edges="np3_nt3 nt3_nt2 nt2_nt1 nt1_np1"/>
    </vehicle>
    <vehicle id="idle_vehicle_36" type="idle_vehicle" depart="61.79228844810973">
        <route edges="np4_nt1 nt1_np1 np1_nt1 nt1_np4"/>
    </vehicle>
    <vehicle id="idle_vehicle_75" type="idle_vehicle" depart="65.33449015359487">
        <route edges="np6_nt4 nt4_nt5 nt5_nt6 nt6_np10"/>
    </vehicle>
    <vehicle id="idle_vehicle_102" type="idle_vehicle" depart="70.49794004150102">
        <route edges="np8_nt4 nt4_nt1 nt1_nt2 nt2_nt3 nt3_np5"/>
    </vehicle>
    <vehicle id="idle_vehicle_217" type="idle_vehicle" depart="76.87076211332516">
        <route edges="np10_nt6 nt6_nt3 nt3_np3"/>
    </vehicle>
    <vehicle id="idle_vehicle_124" type="idle_vehicle" depart="80.04437501200226">
        <route edges="np9_nt5 nt5_nt2 nt2_nt1 nt1_np4"/>
    </vehicle>
    <vehicle id="idle_vehicle_71" type="idle_vehicle" depart="83.03760267406899">
        <route edges="np9_nt5 nt5_nt2 nt2_nt3 nt3_np3"/>
    </vehicle>
    <vehicle id="idle_vehicle_54" type="idle_vehicle" depart="83.41758464955093">
        <route edges="np2_nt2 nt2_nt1 nt1_nt4 nt4_np6"/>
    </vehicle>
    <vehicle id="idle_vehicle_34" type="idle_vehicle" depart="85.1258934296064">
        <route edges="np7_nt6 nt6_nt3 nt3_nt2 nt2_np2"/>
    </vehicle>
    <vehicle id="idle_vehicle_94" type="idle_vehicle" depart="86.96174937865689">
        <route edges="np3_nt3 nt3_nt6 nt6_np10"/>
    </vehicle>
    <vehicle id="idle_vehicle_101" type="idle_vehicle" depart="87.40577491408797">
        <route edges="np5_nt3 nt3_nt2 nt2_nt1 nt1_np1"/>
    </vehicle>
    <vehicle id="idle_vehicle_131" type="idle_vehicle" depart="90.98606775940353">
        <route edges="np5_nt3 nt3_nt2 nt2_nt1 nt1_np1"/>
    </vehicle>
    <vehicle id="idle_vehicle_31" type="idle_vehicle" depart="91.10350626956958">
        <route edges="np8_nt4 nt4_nt1 nt1_nt2 nt2_nt3 nt3_np3"/>
    </vehicle>
    <vehicle id="idle_vehicle_150" type="idle_vehicle" depart="91.87300692652913">
        <route edges="np2_nt2 nt2_nt1 nt1_np1"/>
    </vehicle>
    <vehicle id="idle_vehicle_44" type="idle_vehicle" depart="92.02449011661153">
        <route edges="np8_nt4 nt4_nt5 nt5_np9"/>
    </vehicle>
    <vehicle id="idle_vehicle_204" type="idle_vehicle" depart="93.26842694328539">
        <route edges="np9_nt5 nt5_nt2 nt2_np2"/>
    </vehicle>
    <vehicle id="idle_vehicle_114" type="idle_vehicle" depart="93.3362806248101">
        <route edges="np1_nt1 nt1_nt2 nt2_nt3 nt3_np5"/>
    </vehicle>
    <vehicle id="idle_vehicle_161" type="idle_vehicle" depart="94.72416767109273">
        <route edges="np8_nt4 nt4_nt5 nt5_np9"/>
    </vehicle>
    <vehicle id="idle_vehicle_2" type="idle_vehicle" depart="98.09621400734265">
        <route edges="np9_nt5 nt5_nt2 nt2_nt3 nt3_np3"/>
    </vehicle>
    <vehicle id="idle_vehicle_154" type="idle_vehicle" depart="100.63418309618459">
        <route edges="np4_nt1 nt1_nt4 nt4_np8"/>
    </vehicle>
    <vehicle id="idle_vehicle_46" type="idle_vehicle" depart="119.68962938142846">
        <route edges="np1_nt1 nt1_nt2 nt2_nt3 nt3_np5"/>
    </vehicle>
    <vehicle id="idle_vehicle_147" type="idle_vehicle" depart="126.10907913238236">
        <route edges="np7_nt6 nt6_nt5 nt5_nt4 nt4_np6"/>
    </vehicle>
    <vehicle id="idle_vehicle_40" type="idle_vehicle" depart="128.5471156828465">
        <route edges="np2_nt2 nt2_nt3 nt3_nt6 nt6_np7"/>
    </vehicle>
    <vehicle id="idle_vehicle_96" type="idle_vehicle" depart="129.15214986748654">
        <route edges="np5_nt3 nt3_nt2 nt2_nt1 nt1_nt4 nt4_np8"/>
    </vehicle>
    <vehicle id="idle_vehicle_17" type="idle_vehicle" depart="129.52884518899833">
        <route edges="np4_nt1 nt1_np1"/>
    </vehicle>
    <vehicle id="idle_vehicle_118" type="idle_vehicle" depart="138.40293345306725">
        <route edges="np2_nt2 nt2_nt5 nt5_np9"/>
    </vehicle>
    <vehicle id="idle_vehicle_135" type="idle_vehicle" depart="144.0746387534956">
        <route edges="np8_nt4 nt4_nt1 nt1_nt2 nt2_np2"/>
    </vehicle>
    <vehicle id="idle_vehicle_32" type="idle_vehicle" depart="146.4908133277227">
        <route edges="np6_nt4 nt4_nt5 nt5_nt6 nt6_np7"/>
    </vehicle>
    <vehicle id="idle_vehicle_49" type="idle_vehicle" depart="147.2863174027852">
        <route edges="np7_nt6 nt6_nt3 nt3_nt2 nt2_np2"/>
    </vehicle>
    <vehicle id="idle_vehicle_145" type="idle_vehicle" depart="155.47229236141763">
        <route edges="np1_nt1 nt1_nt4 nt4_np8"/>
    </vehicle>
    <vehicle id="idle_vehicle_173" type="idle_vehicle" depart="159.03810557828137">
        <route edges="np2_nt2 nt2_nt1 nt1_nt4 nt4_np6"/>
    </vehicle>
    <vehicle id="idle_vehicle_11" type="idle_vehicle" depart="160.00529143305337">
        <route edges="np7_nt6 nt6_nt3 nt3_np3"/>
    </vehicle>
    <vehicle id="idle_vehicle_178" type="idle_vehicle" depart="161.28972323260635">
        <route edges="np3_nt3 nt3_nt6 nt6_np7"/>
    </vehicle>
    <vehicle id="idle_vehicle_12" type="idle_vehicle" depart="161.68759213608928">
        <route edges="np3_nt3 nt3_nt6 nt6_np10"/>
    </vehicle>
    <vehicle id="idle_vehicle_122" type="idle_vehicle" depart="165.7165319522682">
        <route edges="np10_nt6 nt6_nt5 nt5_nt4 nt4_np8"/>
    </vehicle>
    <vehicle id="idle_vehicle_136" type="idle_vehicle" depart="166.31250321552847">
        <route edges="np6_nt4 nt4_nt5 nt5_nt6 nt6_np7"/>
    </vehicle>
    <vehicle id="idle_vehicle_127" type="idle_vehicle" depart="166.3230324870728">
        <route edges="np1_nt1 nt1_nt2 nt2_nt3 nt3_nt6 nt6_np10"/>
    </vehicle>
    <vehicle id="idle_vehicle_20" type="idle_vehicle" depart="167.1312140275213">
        <route edges="np4_nt1 nt1_nt2 nt2_nt3 nt3_nt6 nt6_np10"/>
    </vehicle>
    <vehicle id="idle_vehicle_9" type="idle_vehicle" depart="170.3634827627636">
        <route edges="np10_nt6 nt6_np7"/>
    </vehicle>
    <vehicle id="idle_vehicle_7" type="idle_vehicle" depart="175.27779788080738">
        <route edges="np7_nt6 nt6_nt3 nt3_nt2 nt2_nt1 nt1_np1"/>
    </vehicle>
    <vehicle id="idle_vehicle_126" type="idle_vehicle" depart="177.09298083933894">
        <route edges="np7_nt6 nt6_np10"/>
    </vehicle>
    <vehicle id="idle_vehicle_33" type="idle_vehicle" depart="180.47549196717006">
        <route edges="np10_nt6 nt6_np7"/>
    </vehicle>
    <vehicle id="idle_vehicle_92" type="idle_vehicle" depart="181.7609170930691">
        <route edges="np6_nt4 nt4_np8 np8_nt4 nt4_np6"/>
    </vehicle>
    <vehicle id="idle_vehicle_221" type="idle_vehicle" depart="193.02820613661842">
        <route edges="np9_nt5 nt5_nt6 nt6_np10"/>
    </vehicle>
    <vehicle id="idle_vehicle_99" type="idle_vehicle" depart="204.55934342285556">
        <route edges="np9_nt5 nt5_nt2 nt2_nt3 nt3_np5"/>
    </vehicle>
    <vehicle id="idle_vehicle_211" type="idle_vehicle" depart="209.39815133785683">
        <route edges="np7_nt6 nt6_nt3 nt3_np5"/>
    </vehicle>
    <vehicle id="idle_vehicle_193" type="idle_vehicle" depart="209.85153467649118">
        <route edges="np3_nt3 nt3_nt2 nt2_nt1 nt1_nt4 nt4_np6"/>
    </vehicle>
    <vehicle id="idle_vehicle_212" type="idle_vehicle" depart="214.33744265211647">
        <route edges="np7_nt6 nt6_nt5 nt5_np9"/>
    </vehicle>
    <vehicle id="idle_vehicle_239" type="idle_vehicle" depart="223.32148411413667">
        <route edges="np2_nt2 nt2_nt3 nt3_nt6 nt6_np7"/>
    </vehicle>
    <vehicle id="idle_vehicle_22" type="idle_vehicle" depart="225.94947263432115">
        <route edges="np2_nt2 nt2_nt3 nt3_nt6 nt6_np10"/>
    </vehicle>
    <vehicle id="idle_vehicle_208" type="idle_vehicle" depart="226.37918595702163">
        <route edges="np8_nt4 nt4_nt1 nt1_nt2 nt2_nt3 nt3_np5"/>
    </vehicle>
    <vehicle id="idle_vehicle_113" type="idle_vehicle" depart="227.2157674075986">
        <route edges="np7_nt6 nt6_np10"/>
    </vehicle>
    <vehicle id="idle_vehicle_148" type="idle_vehicle" depart="227.40091579460193">
        <route edges="np1_nt1 nt1_nt2 nt2_nt3 nt3_nt6 nt6_np10"/>
    </vehicle>
    <vehicle id="idle_vehicle_55" type="idle_vehicle" depart="229.87772371231756">
        <route edges="np6_nt4 nt4_nt5 nt5_nt6 nt6_np10"/>
    </vehicle>
    <vehicle id="idle_vehicle_182" type="idle_vehicle" depart="231.01750014281794">
        <route edges="np9_nt5 nt5_nt4 nt4_np8"/>
    </vehicle>
    <vehicle id="idle_vehicle_85" type="idle_vehicle" depart="232.17872567598752">
        <route edges="np1_nt1 nt1_nt2 nt2_nt3 nt3_nt6 nt6_np7"/>
    </vehicle>
    <vehicle id="idle_vehicle_30" type="idle_vehicle" depart="234.56084774587094">
        <route edges="np3_nt3 nt3_np5"/>
    </vehicle>
    <vehicle id="idle_vehicle_10" type="idle_vehicle" depart="238.04368248365364">
        <route edges="np10_nt6 nt6_nt5 nt5_np9"/>
    </vehicle>
    <vehicle id="idle_vehicle_91" type="idle_vehicle" depart="241.34919631923592">
        <route edges="np9_nt5 nt5_nt2 nt2_nt3 nt3_np5"/>
    </vehicle>
    <vehicle id="idle_vehicle_199" type="idle_vehicle" depart="242.38195884090192">
        <route edges="np6_nt4 nt4_nt1 nt1_np1"/>
    </vehicle>
    <vehicle id="idle_vehicle_181" type="idle_vehicle" depart="243.07498124643993">
        <route edges="np10_nt6 nt6_nt3 nt3_np3"/>
    </vehicle>
    <vehicle id="idle_vehicle_79" type="idle_vehicle" depart="251.25445943738134">
        <route edges="np4_nt1 nt1_nt2 nt2_nt3 nt3_np3"/>
    </vehicle>
    <vehicle id="idle_vehicle_134" type="idle_vehicle" depart="252.06380382693646">
        <route edges="np4_nt1 nt1_nt2 nt2_nt3 nt3_np3"/>
    </vehicle>
    <vehicle id="idle_vehicle_224" type="idle_vehicle" depart="258.07430727693463">
        <route edges="np7_nt6 nt6_nt3 nt3_np3"/>
    </vehicle>
    <vehicle id="idle_vehicle_213" type="idle_vehicle" depart="259.1523681674123">
        <route edges="np7_nt6 nt6_nt3 nt3_nt2 nt2_nt1 nt1_np1"/>
    </vehicle>
    <vehicle id="idle_vehicle_100" type="idle_vehicle" depart="266.60030280522494">
        <route edges="np10_nt6 nt6_nt3 nt3_nt2 nt2_np2"/>
    </vehicle>
    <vehicle id="idle_vehicle_183" type="idle_vehicle" depart="267.0367934355525">
        <route edges="np8_nt4 nt4_np6 np6_nt4 nt4_np8"/>
    </vehicle>
    <vehicle id="idle_vehicle_74" type="idle_vehicle" depart="270.1413704620832">
        <route edges="np2_nt2 nt2_nt3 nt3_np3"/>
    </vehicle>
    <vehicle id="idle_vehicle_53" type="idle_vehicle" depart="272.94256059113593">
        <route edges="np6_nt4 nt4_np8"/>
    </vehicle>
    <vehicle id="idle_vehicle_111" type="idle_vehicle" depart="273.8233547198702">
        <route edges="np6_nt4 nt4_nt1 nt1_np1"/>
    </vehicle>
    <vehicle id="idle_vehicle_42" type="idle_vehicle" depart="274.4710207135196">
        <route edges="np5_nt3 nt3_np3"/>
    </vehicle>
    <vehicle id="idle_vehicle_197" type="idle_vehicle" depart="275.11034531003025">
        <route edges="np2_nt2 nt2_nt1 nt1_np1"/>
    </vehicle>
    <vehicle id="idle_vehicle_83" type="idle_vehicle" depart="278.7554522798664">
        <route edges="np5_nt3 nt3_nt2 nt2_np2"/>
    </vehicle>
    <vehicle id="idle_vehicle_233" type="idle_vehicle" depart="286.87716374699164">
        <route edges="np4_nt1 nt1_nt2 nt2_nt3 nt3_np3"/>
    </vehicle>
    <vehicle id="idle_vehicle_214" type="idle_vehicle" depart="287.24981608791893">
        <route edges="np9_nt5 nt5_nt4 nt4_np8"/>
    </vehicle>
    <vehicle id="idle_vehicle_165" type="idle_vehicle" depart="289.9121614843346">
        <route edges="np2_nt2 nt2_nt1 nt1_np1"/>
    </vehicle>
    <vehicle id="idle_vehicle_229" type="idle_vehicle" depart="292.0837483228003">
        <route edges="np7_nt6 nt6_nt5 nt5_np9"/>
    </vehicle>
    <vehicle id="idle_vehicle_223" type="idle_vehicle" depart="295.16698613074743">
        <route edges="np5_nt3 nt3_nt6 nt6_np7"/>
    </vehicle>
    <vehicle id="idle_vehicle_151" type="idle_vehicle" depart="306.08653287055984">
        <route edges="np8_nt4 nt4_np6 np6_nt4 nt4_np8"/>
    </vehicle>
    <vehicle id="idle_vehicle_125" type="idle_vehicle" depart="319.6871015750694">
        <route edges="np9_nt5 nt5_nt2 nt2_nt3 nt3_np5"/>
    </vehicle>
    <vehicle id="idle_vehicle_80" type="idle_vehicle" depart="320.97482006526457">
        <route edges="np4_nt1 nt1_nt2 nt2_nt3 nt3_np5"/>
    </vehicle>
    <vehicle id="idle_vehicle_231" type="idle_vehicle" depart="321.50115085767476">
        <route edges="np10_nt6 nt6_nt5 nt5_nt4 nt4_np6"/>
    </vehicle>
    <vehicle id="idle_vehicle_142" type="idle_vehicle" depart="334.3170243251717">
        <route edges="np4_nt1 nt1_nt2 nt2_nt3 nt3_np5"/>
    </vehicle>
    <vehicle id="idle_vehicle_16" type="idle_vehicle" depart="335.58497646088796">
        <route edges="np5_nt3 nt3_np3"/>
    </vehicle>
    <vehicle id="idle_vehicle_27" type="idle_vehicle" depart="337.00572460102114">
        <route edges="np4_nt1 nt1_np1"/>
    </vehicle>
    <vehicle id="idle_vehicle_57" type="idle_vehicle" depart="337.8459391407849">
        <route edges="np10_nt6 nt6_np7 np7_nt6 nt6_np10"/>
    </vehicle>
    <vehicle id="idle_vehicle_106" type="idle_vehicle" depart="343.0951646536234">
        <route edges="np7_nt6 nt6_np10"/>
    </vehicle>
    <vehicle id="idle_vehicle_195" type="idle_vehicle" depart="348.05467956827306">
        <route edges="np1_nt1 nt1_nt2 nt2_nt3 nt3_np5"/>
    </vehicle>
    <vehicle id="idle_vehicle_133" type="idle_vehicle" depart="348.8573301095684">
        <route edges="np10_nt6 nt6_nt3 nt3_np3"/>
    </vehicle>
    <vehicle id="idle_vehicle_210" type="idle_vehicle" depart="351.0667510155632">
        <route edges="np10_nt6 nt6_nt5 nt5_np9"/>
    </vehicle>
    <vehicle id="idle_vehicle_185" type="idle_vehicle" depart="358.1523164408229">
        <route edges="np8_nt4 nt4_nt5 nt5_nt6 nt6_np10"/>
    </vehicle>
    <vehicle id="idle_vehicle_237" type="idle_vehicle" depart="366.4168085161532">
        <route edges="np8_nt4 nt4_np6"/>
    </vehicle>
    <vehicle id="idle_vehicle_139" type="idle_vehicle" depart="366.42482666048215">
        <route edges="np2_nt2 nt2_nt1 nt1_np4"/>
    </vehicle>
    <vehicle id="idle_vehicle_205" type="idle_vehicle" depart="367.7477642919282">
        <route edges="np9_nt5 nt5_nt2 nt2_nt1 nt1_nt4 nt4_nt5 nt5_np9"/>
    </vehicle>
    <vehicle id="idle_vehicle_70" type="idle_vehicle" depart="369.8929571087286">
        <route edges="np5_nt3 nt3_nt2 nt2_nt1 nt1_np4"/>
    </vehicle>
    <vehicle id="idle_vehicle_18" type="idle_vehicle" depart="371.2663468032777">
        <route edges="np2_nt2 nt2_nt1 nt1_nt4 nt4_np6"/>
    </vehicle>
    <vehicle id="idle_vehicle_176" type="idle_vehicle" depart="385.9576677774786">
        <route edges="np9_nt5 nt5_nt2 nt2_nt1 nt1_np4"/>
    </vehicle>
    <vehicle id="idle_vehicle_143" type="idle_vehicle" depart="386.9064360027296">
        <route edges="np8_nt4 nt4_nt5 nt5_nt6 nt6_np10"/>
    </vehicle>
    <vehicle id="idle_vehicle_149" type="idle_vehicle" depart="390.4120235946335">
        <route edges="np2_nt2 nt2_nt3 nt3_np5"/>
    </vehicle>
    <vehicle id="idle_vehicle_234" type="idle_vehicle" depart="390.61256122256145">
        <route edges="np7_nt6 nt6_nt5 nt5_nt4 nt4_np8"/>
    </vehicle>
    <vehicle id="idle_vehicle_109" type="idle_vehicle" depart="399.6122765455226">
        <route edges="np9_nt5 nt5_nt6 nt6_np7"/>
    </vehicle>
    <vehicle id="idle_vehicle_50" type="idle_vehicle" depart="400.1618937081555">
        <route edges="np6_nt4 nt4_nt1 nt1_np4"/>
    </vehicle>
    <vehicle id="idle_vehicle_69" type="idle_vehicle" depart="402.9651944484946">
        <route edges="np10_nt6 nt6_nt3 nt3_nt2 nt2_nt1 nt1_np4"/>
    </vehicle>
    <vehicle id="idle_vehicle_175" type="idle_vehicle" depart="403.08266789177657">
        <route edges="np1_nt1 nt1_np4 np4_nt1 nt1_np1"/>
    </vehicle>
    <vehicle id="idle_vehicle_198" type="idle_vehicle" depart="404.96593545274936">
        <route edges="np5_nt3 nt3_nt2 nt2_nt1 nt1_nt4 nt4_np6"/>
    </vehicle>
    <vehicle id="idle_vehicle_162" type="idle_vehicle" depart="406.593023207596">
        <route edges="np8_nt4 nt4_nt5 nt5_nt6 nt6_np10"/>
    </vehicle>
    <vehicle id="idle_vehicle_19" type="idle_vehicle" depart="409.70502838726975">
        <route edges="np3_nt3 nt3_nt2 nt2_nt5 nt5_np9"/>
    </vehicle>
    <vehicle id="idle_vehicle_163" type="idle_vehicle" depart="415.706462502733">
        <route edges="np1_nt1 nt1_nt2 nt2_nt3 nt3_np5"/>
    </vehicle>
    <vehicle id="idle_vehicle_107" type="idle_vehicle" depart="421.53077088283226">
        <route edges="np3_nt3 nt3_nt2 nt2_nt1 nt1_nt4 nt4_np8"/>
    </vehicle>
    <vehicle id="idle_vehicle_39" type="idle_vehicle" depart="426.4530991192062">
        <route edges="np8_nt4 nt4_nt1 nt1_nt2 nt2_np2"/>
    </vehicle>
    <vehicle id="idle_vehicle_105" type="idle_vehicle" depart="426.5906169390993">
        <route edges="np8_nt4 nt4_nt5 nt5_nt6 nt6_np7"/>
    </vehicle>
    <vehicle id="idle_vehicle_98" type="idle_vehicle" depart="426.853507690816">
        <route edges="np2_nt2 nt2_nt3 nt3_nt6 nt6_np10"/>
    </vehicle>
    <vehicle id="idle_vehicle_41" type="idle_vehicle" depart="434.53593447728133">
        <route edges="np3_nt3 nt3_nt2 nt2_np2"/>
    </vehicle>
    <vehicle id="idle_vehicle_215" type="idle_vehicle" depart="441.7878047266318">
        <route edges="np6_nt4 nt4_nt1 nt1_np1"/>
    </vehicle>
    <vehicle id="idle_vehicle_187" type="idle_vehicle" depart="443.70106072678874">
        <route edges="np8_nt4 nt4_nt1 nt1_nt2 nt2_nt3 nt3_np3"/>
    </vehicle>
    <vehicle id="idle_vehicle_138" type="idle_vehicle" depart="443.8747712761533">
        <route edges="np2_nt2 nt2_nt3 nt3_np5"/>
    </vehicle>
    <vehicle id="idle_vehicle_226" type="idle_vehicle" depart="452.36536968060443">
        <route edges="np4_nt1 nt1_nt4 nt4_np6"/>
    </vehicle>
    <vehicle id="idle_vehicle_219" type="idle_vehicle" depart="465.93029929384517">
        <route edges="np3_nt3 nt3_nt6 nt6_np7"/>
    </vehicle>
    <vehicle id="idle_vehicle_235" type="idle_vehicle" depart="467.678881475523">
        <route edges="np2_nt2 nt2_nt5 nt5_np9"/>
    </vehicle>
    <vehicle id="idle_vehicle_228" type="idle_vehicle" depart="470.8038628433812">
        <route edges="np8_nt4 nt4_nt1 nt1_nt2 nt2_nt3 nt3_np5"/>
    </vehicle>
    <vehicle id="idle_vehicle_8" type="idle_vehicle" depart="473.09887904216106">
        <route edges="np1_nt1 nt1_nt2 nt2_nt5 nt5_np9"/>
    </vehicle>
    <vehicle id="idle_vehicle_28" type="idle_vehicle" depart="477.46556825034395">
        <route edges="np4_nt1 nt1_nt2 nt2_np2"/>
    </vehicle>
    <vehicle id="idle_vehicle_93" type="idle_vehicle" depart="483.2808502127387">
        <route edges="np8_nt4 nt4_nt1 nt1_nt2 nt2_nt3 nt3_np5"/>
    </vehicle>
    <vehicle id="idle_vehicle_29" type="idle_vehicle" depart="484.56063712130015">
        <route edges="np4_nt1 nt1_nt2 nt2_nt5 nt5_np9"/>
    </vehicle>
    <vehicle id="idle_vehicle_110" type="idle_vehicle" depart="485.92987523702254">
        <route edges="np6_nt4 nt4_nt1 nt1_np1"/>
    </vehicle>
    <vehicle id="idle_vehicle_180" type="idle_vehicle" depart="485.97883363386075">
        <route edges="np9_nt5 nt5_nt4 nt4_np6"/>
    </vehicle>
    <vehicle id="idle_vehicle_157" type="idle_vehicle" depart="489.81332781444536">
        <route edges="np4_nt1 nt1_nt2 nt2_nt5 nt5_np9"/>
    </vehicle>
    <vehicle id="idle_vehicle_172" type="idle_vehicle" depart="489.8419516166039">
        <route edges="np3_nt3 nt3_nt2 nt2_nt5 nt5_np9"/>
    </vehicle>
    <vehicle id="idle_vehicle_48" type="idle_vehicle" depart="495.61770573294916">
        <route edges="np9_nt5 nt5_nt6 nt6_np10"/>
    </vehicle>
    <vehicle id="idle_vehicle_132" type="idle_vehicle" depart="496.1963886069782">
        <route edges="np6_nt4 nt4_np8 np8_nt4 nt4_np6"/>
    </vehicle>
    <vehicle id="idle_vehicle_116" type="idle_vehicle" depart="496.21735099526694">
        <route edges="np10_nt6 nt6_np7"/>
    </vehicle>
    <vehicle id="idle_vehicle_86" type="idle_vehicle" depart="503.18382407946257">
        <route edges="np2_nt2 nt2_nt1 nt1_np4"/>
    </vehicle>
    <vehicle id="idle_vehicle_191" type="idle_vehicle" depart="503.61855752312954">
        <route edges="np3_nt3 nt3_np5 np5_nt3 nt3_np3"/>
    </vehicle>
    <vehicle id="idle_vehicle_78" type="idle_vehicle" depart="508.32503243363607">
        <route edges="np2_nt2 nt2_nt1 nt1_nt4 nt4_np6"/>
    </vehicle>
    <vehicle id="idle_vehicle_170" type="idle_vehicle" depart="514.081786467404">
        <route edges="np5_nt3 nt3_np3 np3_nt3 nt3_np5"/>
    </vehicle>
    <vehicle id="idle_vehicle_66" type="idle_vehicle" depart="517.4598472888024">
        <route edges="np4_nt1 nt1_nt2 nt2_nt5 nt5_np9"/>
    </vehicle>
    <vehicle id="idle_vehicle_189" type="idle_vehicle" depart="520.693515508583">
        <route edges="np3_nt3 nt3_nt6 nt6_np7"/>
    </vehicle>
    <vehicle id="idle_vehicle_65" type="idle_vehicle" depart="534.5559877795351">
        <route edges="np5_nt3 nt3_nt2 nt2_nt5 nt5_np9"/>
    </vehicle>
    <vehicle id="idle_vehicle_146" type="idle_vehicle" depart="536.8474477538826">
        <route edges="np7_nt6 nt6_nt3 nt3_nt2 nt2_nt1 nt1_np1"/>
    </vehicle>
    <vehicle id="idle_vehicle_129" type="idle_vehicle" depart="542.3304171435485">
        <route edges="np10_nt6 nt6_np7 np7_nt6 nt6_np10"/>
    </vehicle>
    <vehicle id="idle_vehicle_144" type="idle_vehicle" depart="544.9187876035792">
        <route edges="np6_nt4 nt4_nt1 nt1_nt2 nt2_np2"/>
    </vehicle>
    <vehicle id="idle_vehicle_82" type="idle_vehicle" depart="545.0471415930085">
        <route edges="np3_nt3 nt3_nt2 nt2_nt1 nt1_nt4 nt4_np8"/>
    </vehicle>
    <vehicle id="idle_vehicle_206" type="idle_vehicle" depart="545.9371212700593">
        <route edges="np5_nt3 nt3_nt2 nt2_nt1 nt1_np1"/>
    </vehicle>
    <vehicle id="idle_vehicle_0" type="idle_vehicle" depart="547.5639816280893">
        <route edges="np1_nt1 nt1_nt2 nt2_nt3 nt3_nt6 nt6_np7"/>
    </vehicle>
    <vehicle id="idle_vehicle_140" type="idle_vehicle" depart="548.651874762327">
        <route edges="np6_nt4 nt4_nt1 nt1_np4"/>
    </vehicle>
    <vehicle id="idle_vehicle_103" type="idle_vehicle" depart="560.8867800691784">
        <route edges="np5_nt3 nt3_nt2 nt2_nt1 nt1_np4"/>
    </vehicle>
    <vehicle id="idle_vehicle_15" type="idle_vehicle" depart="563.8523103593121">
        <route edges="np10_nt6 nt6_nt3 nt3_nt2 nt2_nt1 nt1_np4"/>
    </vehicle>
    <vehicle id="idle_vehicle_60" type="idle_vehicle" depart="568.598109510654">
        <route edges="np6_nt4 nt4_nt1 nt1_nt2 nt2_nt3 nt3_np5"/>
    </vehicle>
    <vehicle id="idle_vehicle_190" type="idle_vehicle" depart="572.0917216790689">
        <route edges="np9_nt5 nt5_nt2 nt2_nt1 nt1_np1"/>
    </vehicle>
    <vehicle id="idle_vehicle_179" type="idle_vehicle" depart="585.878172013489">
        <route edges="np9_nt5 nt5_nt2 nt2_np2"/>
    </vehicle>
    <vehicle id="idle_vehicle_120" type="idle_vehicle" depart="586.0908263757352">
        <route edges="np5_nt3 nt3_np3"/>
    </vehicle>
    <vehicle id="idle_vehicle_115" type="idle_vehicle" depart="589.4201399038078">
        <route edges="np9_nt5 nt5_nt2 nt2_nt3 nt3_np3"/>
    </vehicle>
    <vehicle id="idle_vehicle_168" type="idle_vehicle" depart="590.0342734584723">
        <route edges="np8_nt4 nt4_np6 np6_nt4 nt4_np8"/>
    </vehicle>
    <vehicle id="idle_vehicle_220" type="idle_vehicle" depart="591.0511269239538">
        <route edges="np6_nt4 nt4_nt5 nt5_np9"/>
    </vehicle>
    <vehicle id="idle_vehicle_62" type="idle_vehicle" depart="591.2477246373236">
        <route edges="np4_nt1 nt1_nt2 nt2_nt3 nt3_np5"/>
    </vehicle>
    <vehicle id="idle_vehicle_225" type="idle_vehicle" depart="594.4961538638883">
        <route edges="np10_nt6 nt6_nt3 nt3_np3"/>
    </vehicle>
    <vehicle id="idle_vehicle_196" type="idle_vehicle" depart="597.2446363581614">
        <route edges="np9_nt5 nt5_nt2 nt2_nt3 nt3_np3"/>
    </vehicle>
    <vehicle id="idle_vehicle_164" type="idle_vehicle" depart="597.9563072081982">
        <route edges="np2_nt2 nt2_nt1 nt1_nt4 nt4_np8"/>
    </vehicle>
    <vehicle id="idle_vehicle_236" type="idle_vehicle" depart="598.912774047771">
        <route edges="np8_nt4 nt4_nt1 nt1_nt2 nt2_nt3 nt3_np5"/>
    </vehicle>
    <vehicle id="idle_vehicle_35" type="idle_vehicle" depart="599.9289164601369">
        <route edges="np3_nt3 nt3_np5 np5_nt3 nt3_np3"/>
    </vehicle>
    <vehicle id="idle_vehicle_230" type="idle_vehicle" depart="605.222477841376">
        <route edges="np6_nt4 nt4_nt1 nt1_nt2 nt2_nt3 nt3_np5"/>
    </vehicle>
    <vehicle id="idle_vehicle_194" type="idle_vehicle" depart="605.7354861519038">
        <route edges="np10_nt6 nt6_nt5 nt5_nt4 nt4_np8"/>
    </vehicle>
    <vehicle id="idle_vehicle_153" type="idle_vehicle" depart="606.1503644027783">
        <route edges="np9_nt5 nt5_nt2 nt2_nt1 nt1_np1"/>
    </vehicle>
    <vehicle id="idle_vehicle_200" type="idle_vehicle" depart="606.1626516301632">
        <route edges="np6_nt4 nt4_nt1 nt1_nt2 nt2_nt3 nt3_np5"/>
    </vehicle>
    <vehicle id="idle_vehicle_73" type="idle_vehicle" depart="607.6210201372458">
        <route edges="np10_nt6 nt6_nt3 nt3_nt2 nt2_np2"/>
    </vehicle>
    <vehicle id="idle_vehicle_88" type="idle_vehicle" depart="609.9677949955044">
        <route edges="np1_nt1 nt1_nt2 nt2_nt5 nt5_np9"/>
    </vehicle>
    <vehicle id="idle_vehicle_216" type="idle_vehicle" depart="610.9690647583257">
        <route edges="np7_nt6 nt6_nt5 nt5_nt4 nt4_np6"/>
    </vehicle>
    <vehicle id="idle_vehicle_43" type="idle_vehicle" depart="614.0152591033157">
        <route edges="np3_nt3 nt3_nt2 nt2_nt1 nt1_np1"/>
    </vehicle>
    <vehicle id="idle_vehicle_47" type="idle_vehicle" depart="622.6086744496">
        <route edges="np6_nt4 nt4_nt1 nt1_nt2 nt2_np2"/>
    </vehicle>
    <vehicle id="idle_vehicle_97" type="idle_vehicle" depart="626.55060136037">