<?xml version="1.0" ?>
<routes>
    <vType id="idle_vehicle" accel="2.6" decel="4.5" sigma="0.5" length="5.0" minGap="2.5" maxSpeed="15.7" carFollowModel="Krauss" tau="1.5" speedFactor="1.2" speedDev="0.8"/>
    <vType id="human_vehicle" accel="2.6" decel="4.5" sigma="0.5" length="5.0" minGap="2.5" maxSpeed="15.7" carFollowModel="Krauss" tau="1.5" speedFactor="1.2" speedDev="0.8"/>
    <vType id="leading_vehicle" accel="2.6" decel="4.5" sigma="0.5" length="5.0" minGap="2.5" maxSpeed="15.7" carFollowModel="Krauss" tau="1.5" speedFactor="1.2" speedDev="0"/>
    <vType id="following_vehicle" accel="2.6" decel="4.5" sigma="0.5" length="5.0" minGap="2.5" maxSpeed="15.7" carFollowModel="EIDM" tau="1.0" speedFactor="1.2" speedDev="0"/>
    <vehicle id="idle_vehicle_189" type="idle_vehicle" depart="1.7810650444194387">
        <route edges="np7_nt6 nt6_nt3 nt3_np3"/>
    </vehicle>
    <vehicle id="idle_vehicle_324" type="idle_vehicle" depart="7.532733072846831">
        <route edges="np9_nt5 nt5_nt2 nt2_nt3 nt3_np3"/>
    </vehicle>
    <vehicle id="idle_vehicle_69" type="idle_vehicle" depart="7.911809148000604">
        <route edges="np6_nt4 nt4_nt5 nt5_nt6 nt6_np7"/>
    </vehicle>
    <vehicle id="idle_vehicle_309" type="idle_vehicle" depart="9.351653882837763">
        <route edges="np5_nt3 nt3_nt2 nt2_nt1 nt1_np4"/>
    </vehicle>
    <vehicle id="idle_vehicle_137" type="idle_vehicle" depart="9.873984110530198">
        <route edges="np7_nt6 nt6_nt5 nt5_np9"/>
    </vehicle>
    <vehicle id="idle_vehicle_377" type="idle_vehicle" depart="11.500157527721822">
        <route edges="np6_nt4 nt4_nt5 nt5_nt6 nt6_np10"/>
    </vehicle>
    <vehicle id="idle_vehicle_297" type="idle_vehicle" depart="14.804219380796457">
        <route edges="np10_nt6 nt6_nt3 nt3_np3"/>
    </vehicle>
    <vehicle id="idle_vehicle_285" type="idle_vehicle" depart="15.354170370900011">
        <route edges="np2_nt2 nt2_nt5 nt5_nt4 nt4_nt1 nt1_nt2 nt2_np2"/>
    </vehicle>
    <vehicle id="idle_vehicle_51" type="idle_vehicle" depart="15.683079243225961">
        <route edges="np5_nt3 nt3_nt2 nt2_nt1 nt1_np1"/>
    </vehicle>
    <vehicle id="idle_vehicle_449" type="idle_vehicle" depart="17.091493999293395">
        <route edges="np6_nt4 nt4_nt5 nt5_np9"/>
    </vehicle>
    <vehicle id="idle_vehicle_375" type="idle_vehicle" depart="18.734552317341713">
        <route edges="np3_nt3 nt3_nt2 nt2_nt1 nt1_nt4 nt4_np6"/>
    </vehicle>
    <vehicle id="idle_vehicle_15" type="idle_vehicle" depart="19.771954733935626">
        <route edges="np7_nt6 nt6_nt3 nt3_nt2 nt2_np2"/>
    </vehicle>
    <vehicle id="idle_vehicle_141" type="idle_vehicle" depart="25.192112553134827">
        <route edges="np6_nt4 nt4_nt5 nt5_nt6 nt6_np10"/>
    </vehicle>
    <vehicle id="idle_vehicle_144" type="idle_vehicle" depart="27.292152211679266">
        <route edges="np3_nt3 nt3_nt2 nt2_nt1 nt1_nt4 nt4_np8"/>
    </vehicle>
    <vehicle id="idle_vehicle_389" type="idle_vehicle" depart="29.309508950845053">
        <route edges="np5_nt3 nt3_np3 np3_nt3 nt3_np5"/>
    </vehicle>
    <vehicle id="idle_vehicle_354" type="idle_vehicle" depart="29.392537508593897">
        <route edges="np4_nt1 nt1_nt2 nt2_nt3 nt3_nt6 nt6_np10"/>
    </vehicle>
    <vehicle id="idle_vehicle_327" type="idle_vehicle" depart="30.0082476684004">
        <route edges="np4_nt1 nt1_nt4 nt4_np6"/>
    </vehicle>
    <vehicle id="idle_vehicle_410" type="idle_vehicle" depart="30.010127283549703">
        <route edges="np10_nt6 nt6_np7"/>
    </vehicle>
    <vehicle id="idle_vehicle_107" type="idle_vehicle" depart="31.222337798039135">
        <route edges="np10_nt6 nt6_nt5 nt5_nt4 nt4_np8"/>
    </vehicle>
    <vehicle id="idle_vehicle_386" type="idle_vehicle" depart="33.242297494080915">
        <route edges="np7_nt6 nt6_nt3 nt3_np5"/>
    </vehicle>
    <vehicle id="idle_vehicle_110" type="idle_vehicle" depart="38.004252765573284">
        <route edges="np9_nt5 nt5_nt4 nt4_np6"/>
    </vehicle>
    <vehicle id="idle_vehicle_467" type="idle_vehicle" depart="38.905392529270785">
        <route edges="np2_nt2 nt2_nt3 nt3_np5"/>
    </vehicle>
    <vehicle id="idle_vehicle_6" type="idle_vehicle" depart="40.304491740315825">
        <route edges="np3_nt3 nt3_np5"/>
    </vehicle>
    <vehicle id="idle_vehicle_114" type="idle_vehicle" depart="41.675744528738164">
        <route edges="np9_nt5 nt5_nt6 nt6_np7"/>
    </vehicle>
    <vehicle id="idle_vehicle_268" type="idle_vehicle" depart="43.12737654137031">
        <route edges="np5_nt3 nt3_nt2 nt2_nt1 nt1_nt4 nt4_np6"/>
    </vehicle>
    <vehicle id="idle_vehicle_133" type="idle_vehicle" depart="44.01152223619205">
        <route edges="np8_nt4 nt4_nt1 nt1_np1"/>
    </vehicle>
    <vehicle id="idle_vehicle_361" type="idle_vehicle" depart="46.52233219955768">
        <route edges="np5_nt3 nt3_nt6 nt6_np7"/>
    </vehicle>
    <vehicle id="idle_vehicle_439" type="idle_vehicle" depart="46.723184560729166">
        <route edges="np7_nt6 nt6_nt5 nt5_nt4 nt4_np6"/>
    </vehicle>
    <vehicle id="idle_vehicle_459" type="idle_vehicle" depart="52.43891050779199">
        <route edges="np5_nt3 nt3_nt2 nt2_np2"/>
    </vehicle>
    <vehicle id="idle_vehicle_304" type="idle_vehicle" depart="57.125991899873355">
        <route edges="np2_nt2 nt2_nt1 nt1_np4"/>
    </vehicle>
    <vehicle id="idle_vehicle_230" type="idle_vehicle" depart="58.79306435901199">
        <route edges="np3_nt3 nt3_nt2 nt2_np2"/>
    </vehicle>
    <vehicle id="idle_vehicle_193" type="idle_vehicle" depart="59.521864377816854">
        <route edges="np8_nt4 nt4_nt5 nt5_np9"/>
    </vehicle>
    <vehicle id="idle_vehicle_100" type="idle_vehicle" depart="60.53595987124601">
        <route edges="np6_nt4 nt4_nt1 nt1_np1"/>
    </vehicle>
    <vehicle id="idle_vehicle_220" type="idle_vehicle" depart="62.147641499862694">
        <route edges="np6_nt4 nt4_nt1 nt1_nt2 nt2_np2"/>
    </vehicle>
    <vehicle id="idle_vehicle_84" type="idle_vehicle" depart="62.5274345608835">
        <route edges="np7_nt6 nt6_nt3 nt3_np5"/>
    </vehicle>
    <vehicle id="idle_vehicle_42" type="idle_vehicle" depart="69.10529821101807">
        <route edges="np5_nt3 nt3_nt2 nt2_nt5 nt5_np9"/>
    </vehicle>
    <vehicle id="idle_vehicle_323" type="idle_vehicle" depart="69.48461339095448">
        <route edges="np8_nt4 nt4_nt1 nt1_np4"/>
    </vehicle>
    <vehicle id="idle_vehicle_229" type="idle_vehicle" depart="70.17645930328058">
        <route edges="np3_nt3 nt3_nt2 nt2_nt5 nt5_np9"/>
    </vehicle>
    <vehicle id="idle_vehicle_311" type="idle_vehicle" depart="71.62559858911388">
        <route edges="np2_nt2 nt2_nt3 nt3_nt6 nt6_np10"/>
    </vehicle>
    <vehicle id="idle_vehicle_219" type="idle_vehicle" depart="78.64915920141016">
        <route edges="np2_nt2 nt2_nt5 nt5_np9"/>
    </vehicle>
    <vehicle id="idle_vehicle_47" type="idle_vehicle" depart="79.96673562657604">
        <route edges="np2_nt2 nt2_nt1 nt1_nt4 nt4_np8"/>
    </vehicle>
    <vehicle id="idle_vehicle_475" type="idle_vehicle" depart="83.40246496616368">
        <route edges="np1_nt1 nt1_nt2 nt2_np2"/>
    </vehicle>
    <vehicle id="idle_vehicle_211" type="idle_vehicle" depart="84.445722795041">
        <route edges="np9_nt5 nt5_nt6 nt6_np7"/>
    </vehicle>
    <vehicle id="idle_vehicle_21" type="idle_vehicle" depart="84.65119125034768">
        <route edges="np10_nt6 nt6_nt3 nt3_nt2 nt2_np2"/>
    </vehicle>
    <vehicle id="idle_vehicle_370" type="idle_vehicle" depart="85.88429932722494">
        <route edges="np6_nt4 nt4_nt5 nt5_nt6 nt6_np7"/>
    </vehicle>
    <vehicle id="idle_vehicle_61" type="idle_vehicle" depart="88.72237778071614">
        <route edges="np10_nt6 nt6_nt3 nt3_np3"/>
    </vehicle>
    <vehicle id="idle_vehicle_328" type="idle_vehicle" depart="89.03882947580061">
        <route edges="np4_nt1 nt1_nt4 nt4_np6"/>
    </vehicle>
    <vehicle id="idle_vehicle_256" type="idle_vehicle" depart="89.33373197661095">
        <route edges="np3_nt3 nt3_nt2 nt2_nt1 nt1_np4"/>
    </vehicle>
    <vehicle id="idle_vehicle_310" type="idle_vehicle" depart="91.53874749218431">
        <route edges="np8_nt4 nt4_nt1 nt1_nt2 nt2_nt3 nt3_np3"/>
    </vehicle>
    <vehicle id="idle_vehicle_2" type="idle_vehicle" depart="91.7962335808471">
        <route edges="np10_nt6 nt6_nt3 nt3_np5"/>
    </vehicle>
    <vehicle id="idle_vehicle_11" type="idle_vehicle" depart="92.89040205064687">
        <route edges="np6_nt4 nt4_nt1 nt1_np4"/>
    </vehicle>
    <vehicle id="idle_vehicle_10" type="idle_vehicle" depart="95.76990816501825">
        <route edges="np6_nt4 nt4_nt1 nt1_nt2 nt2_nt3 nt3_np3"/>
    </vehicle>
    <vehicle id="idle_vehicle_334" type="idle_vehicle" depart="96.20051952415506">
        <route edges="np1_nt1 nt1_nt2 nt2_np2"/>
    </vehicle>
    <vehicle id="idle_vehicle_139" type="idle_vehicle" depart="96.48516362028951">
        <route edges="np2_nt2 nt2_nt1 nt1_nt4 nt4_np6"/>
    </vehicle>
    <vehicle id="idle_vehicle_238" type="idle_vehicle" depart="97.71651299684096">
        <route edges="np7_nt6 nt6_nt3 nt3_nt2 nt2_np2"/>
    </vehicle>
    <vehicle id="idle_vehicle_168" type="idle_vehicle" depart="100.08262475821424">
        <route edges="np9_nt5 nt5_nt4 nt4_np6"/>
    </vehicle>
    <vehicle id="idle_vehicle_165" type="idle_vehicle" depart="100.2430960862716">
        <route edges="np6_nt4 nt4_nt1 nt1_nt2 nt2_nt3 nt3_np5"/>
    </vehicle>
    <vehicle id="idle_vehicle_458" type="idle_vehicle" depart="100.60627215052244">
        <route edges="np7_nt6 nt6_nt3 nt3_nt2 nt2_np2"/>
    </vehicle>
    <vehicle id="idle_vehicle_233" type="idle_vehicle" depart="100.89420670690802">
        <route edges="np5_nt3 nt3_nt6 nt6_np7"/>
    </vehicle>
    <vehicle id="idle_vehicle_184" type="idle_vehicle" depart="103.42251841307197">
        <route edges="np3_nt3 nt3_nt2 nt2_nt1 nt1_np4"/>
    </vehicle>
    <vehicle id="idle_vehicle_177" type="idle_vehicle" depart="106.43818518831552">
        <route edges="np9_nt5 nt5_nt2 nt2_nt3 nt3_np5"/>
    </vehicle>
    <vehicle id="idle_vehicle_33" type="idle_vehicle" depart="108.25532040167846">
        <route edges="np5_nt3 nt3_nt6 nt6_np10"/>
    </vehicle>
    <vehicle id="idle_vehicle_109" type="idle_vehicle" depart="111.78435563178883">
        <route edges="np5_nt3 nt3_nt6 nt6_np7"/>
    </vehicle>
    <vehicle id="idle_vehicle_129" type="idle_vehicle" depart="111.935263857072">
        <route edges="np5_nt3 nt3_np3 np3_nt3 nt3_np5"/>
    </vehicle>
    <vehicle id="idle_vehicle_72" type="idle_vehicle" depart="112.60463264647234">
        <route edges="np1_nt1 nt1_nt4 nt4_np6"/>
    </vehicle>
    <vehicle id="idle_vehicle_108" type="idle_vehicle" depart="115.37338933451551">
        <route edges="np7_nt6 nt6_nt3 nt3_np5"/>
    </vehicle>
    <vehicle id="idle_vehicle_448" type="idle_vehicle" depart="116.59949274661221">
        <route edges="np7_nt6 nt6_nt3 nt3_np3"/>
    </vehicle>
    <vehicle id="idle_vehicle_134" type="idle_vehicle" depart="120.77611104090673">
        <route edges="np5_nt3 nt3_nt2 nt2_np2"/>
    </vehicle>
    <vehicle id="idle_vehicle_145" type="idle_vehicle" depart="121.85058619151539">
        <route edges="np5_nt3 nt3_nt6 nt6_np10"/>
    </vehicle>
    <vehicle id="idle_vehicle_251" type="idle_vehicle" depart="126.9846614857043">
        <route edges="np5_nt3 nt3_nt6 nt6_np7"/>
    </vehicle>
    <vehicle id="idle_vehicle_13" type="idle_vehicle" depart="129.13963267547405">
        <route edges="np6_nt4 nt4_nt5 nt5_nt6 nt6_np10"/>
    </vehicle>
    <vehicle id="idle_vehicle_218" type="idle_vehicle" depart="130.45111942730142">
        <route edges="np3_nt3 nt3_nt2 nt2_nt1 nt1_nt4 nt4_np8"/>
    </vehicle>
    <vehicle id="idle_vehicle_14" type="idle_vehicle" depart="131.84946259920665">
        <route edges="np7_nt6 nt6_np10 np10_nt6 nt6_np7"/>
    </vehicle>
    <vehicle id="idle_vehicle_235" type="idle_vehicle" depart="132.2517439157284">
        <route edges="np4_nt1 nt1_nt2 nt2_nt5 nt5_np9"/>
    </vehicle>
    <vehicle id="idle_vehicle_170" type="idle_vehicle" depart="132.39309846517244">
        <route edges="np10_nt6 nt6_nt3 nt3_nt2 nt2_np2"/>
    </vehicle>
    <vehicle id="idle_vehicle_161" type="idle_vehicle" depart="133.31595034136453">
        <route edges="np2_nt2 nt2_nt3 nt3_nt6 nt6_np7"/>
    </vehicle>
    <vehicle id="idle_vehicle_374" type="idle_vehicle" depart="134.2911971057144">
        <route edges="np8_nt4 nt4_nt1 nt1_nt2 nt2_nt3 nt3_np5"/>
    </vehicle>
    <vehicle id="idle_vehicle_124" type="idle_vehicle" depart="136.0518962744945">
        <route edges="np2_nt2 nt2_nt1 nt1_nt4 nt4_np8"/>
    </vehicle>
    <vehicle id="idle_vehicle_208" type="idle_vehicle" depart="137.0953634837007">
        <route edges="np2_nt2 nt2_nt5 nt5_nt4 nt4_nt1 nt1_nt2 nt2_np2"/>
    </vehicle>
    <vehicle id="idle_vehicle_126" type="idle_vehicle" depart="143.6429974730296">
        <route edges="np2_nt2 nt2_nt3 nt3_np5"/>
    </vehicle>
    <vehicle id="idle_vehicle_260" type="idle_vehicle" depart="143.72811445187264">
        <route edges="np1_nt1 nt1_nt2 nt2_nt3 nt3_np3"/>
    </vehicle>
    <vehicle id="idle_vehicle_444" type="idle_vehicle" depart="143.83212908510004">
        <route edges="np9_nt5 nt5_nt2 nt2_nt1 nt1_np4"/>
    </vehicle>
    <vehicle id="idle_vehicle_44" type="idle_vehicle" depart="144.02702707869395">
        <route edges="np7_nt6 nt6_np10"/>
    </vehicle>
    <vehicle id="idle_vehicle_331" type="idle_vehicle" depart="145.37746276315434">
        <route edges="np2_nt2 nt2_nt5 nt5_np9"/>
    </vehicle>
    <vehicle id="idle_vehicle_405" type="idle_vehicle" depart="146.42721650752196">
        <route edges="np4_nt1 nt1_nt4 nt4_np8"/>
    </vehicle>
    <vehicle id="idle_vehicle_460" type="idle_vehicle" depart="149.06305144729907">
        <route edges="np5_nt3 nt3_nt2 nt2_nt1 nt1_nt4 nt4_np6"/>
    </vehicle>
    <vehicle id="idle_vehicle_212" type="idle_vehicle" depart="150.8142401202165">
        <route edges="np1_nt1 nt1_nt2 nt2_np2"/>
    </vehicle>
    <vehicle id="idle_vehicle_147" type="idle_vehicle" depart="150.94657180503984">
        <route edges="np6_nt4 nt4_nt1 nt1_np1"/>
    </vehicle>
    <vehicle id="idle_vehicle_295" type="idle_vehicle" depart="153.9805338949364">
        <route edges="np7_nt6 nt6_nt3 nt3_np5"/>
    </vehicle>
    <vehicle id="idle_vehicle_418" type="idle_vehicle" depart="154.10989496023308">
        <route edges="np2_nt2 nt2_nt3 nt3_nt6 nt6_np7"/>
    </vehicle>
    <vehicle id="idle_vehicle_67" type="idle_vehicle" depart="154.73018711583785">
        <route edges="np3_nt3 nt3_nt2 nt2_nt1 nt1_np1"/>
    </vehicle>
    <vehicle id="idle_vehicle_270" type="idle_vehicle" depart="156.19953593918706">
        <route edges="np8_nt4 nt4_nt5 nt5_np9"/>
    </vehicle>
    <vehicle id="idle_vehicle_113" type="idle_vehicle" depart="162.03827202219853">
        <route edges="np9_nt5 nt5_nt2 nt2_nt1 nt1_np4"/>
    </vehicle>
    <vehicle id="idle_vehicle_182" type="idle_vehicle" depart="166.05689058609227">
        <route edges="np3_nt3 nt3_nt6 nt6_np7"/>
    </vehicle>
    <vehicle id="idle_vehicle_173" type="idle_vehicle" depart="168.1509097542083">
        <route edges="np7_nt6 nt6_nt3 nt3_np3"/>
    </vehicle>
    <vehicle id="idle_vehicle_55" type="idle_vehicle" depart="168.67201929918335">
        <route edges="np6_nt4 nt4_np8"/>
    </vehicle>
    <vehicle id="idle_vehicle_0" type="idle_vehicle" depart="169.92701437982961">
        <route edges="np2_nt2 nt2_nt3 nt3_np5"/>
    </vehicle>
    <vehicle id="idle_vehicle_130" type="idle_vehicle" depart="170.4214212860249">
        <route edges="np10_nt6 nt6_np7 np7_nt6 nt6_np10"/>
    </vehicle>
    <vehicle id="idle_vehicle_175" type="idle_vehicle" depart="170.54215091913437">
        <route edges="np4_nt1 nt1_nt2 nt2_nt3 nt3_np5"/>
    </vehicle>
    <vehicle id="idle_vehicle_8" type="idle_vehicle" depart="171.47632846134258">
        <route edges="np3_nt3 nt3_nt2 nt2_np2"/>
    </vehicle>
    <vehicle id="idle_vehicle_226" type="idle_vehicle" depart="173.08730658460644">
        <route edges="np4_nt1 nt1_nt2 nt2_nt3 nt3_nt6 nt6_np7"/>
    </vehicle>
    <vehicle id="idle_vehicle_70" type="idle_vehicle" depart="174.78082172102322">
        <route edges="np4_nt1 nt1_nt2 nt2_nt5 nt5_np9"/>
    </vehicle>
    <vehicle id="idle_vehicle_383" type="idle_vehicle" depart="174.97449250260325">
        <route edges="np1_nt1 nt1_nt2 nt2_nt3 nt3_np5"/>
    </vehicle>
    <vehicle id="idle_vehicle_322" type="idle_vehicle" depart="177.34168852298203">
        <route edges="np8_nt4 nt4_nt1 nt1_nt2 nt2_np2"/>
    </vehicle>
    <vehicle id="idle_vehicle_380" type="idle_vehicle" depart="177.988600310072">
        <route edges="np1_nt1 nt1_nt2 nt2_nt3 nt3_np5"/>
    </vehicle>
    <vehicle id="idle_vehicle_428" type="idle_vehicle" depart="178.41733686100474">
        <route edges="np7_nt6 nt6_np10 np10_nt6 nt6_np7"/>
    </vehicle>
    <vehicle id="idle_vehicle_357" type="idle_vehicle" depart="178.57583836104132">
        <route edges="np9_nt5 nt5_nt4 nt4_np6"/>
    </vehicle>
    <vehicle id="idle_vehicle_206" type="idle_vehicle" depart="179.4580479249011">
        <route edges="np4_nt1 nt1_nt2 nt2_nt5 nt5_np9"/>
    </vehicle>
    <vehicle id="idle_vehicle_171" type="idle_vehicle" depart="179.63704375714454">
        <route edges="np2_nt2 nt2_nt1 nt1_nt4 nt4_np8"/>
    </vehicle>
    <vehicle id="idle_vehicle_333" type="idle_vehicle" depart="184.0478796815696">
        <route edges="np8_nt4 nt4_np6 np6_nt4 nt4_np8"/>
    </vehicle>
    <vehicle id="idle_vehicle_335" type="idle_vehicle" depart="188.17527004015187">
        <route edges="np7_nt6 nt6_nt3 nt3_nt2 nt2_nt1 nt1_np1"/>
    </vehicle>
    <vehicle id="idle_vehicle_68" type="idle_vehicle" depart="192.8050193537697">
        <route edges="np7_nt6 nt6_nt3 nt3_np5"/>
    </vehicle>
    <vehicle id="idle_vehicle_265" type="idle_vehicle" depart="192.97206697408652">
        <route edges="np10_nt6 nt6_nt5 nt5_nt4 nt4_np8"/>
    </vehicle>
    <vehicle id="idle_vehicle_29" type="idle_vehicle" depart="195.9237058780994">
        <route edges="np10_nt6 nt6_nt3 nt3_nt2 nt2_nt1 nt1_np4"/>
    </vehicle>
    <vehicle id="idle_vehicle_205" type="idle_vehicle" depart="196.18485921447996">
        <route edges="np8_nt4 nt4_nt1 nt1_nt2 nt2_nt3 nt3_np5"/>
    </vehicle>
    <vehicle id="idle_vehicle_54" type="idle_vehicle" depart="198.43573131905563">
        <route edges="np7_nt6 nt6_nt5 nt5_nt4 nt4_np8"/>
    </vehicle>
    <vehicle id="idle_vehicle_305" type="idle_vehicle" depart="200.0884333809835">
        <route edges="np2_nt2 nt2_nt1 nt1_np1"/>
    </vehicle>
    <vehicle id="idle_vehicle_351" type="idle_vehicle" depart="201.45323180343917">
        <route edges="np4_nt1 nt1_nt2 nt2_nt3 nt3_nt6 nt6_np10"/>
    </vehicle>
    <vehicle id="idle_vehicle_181" type="idle_vehicle" depart="201.48697371084987">
        <route edges="np2_nt2 nt2_nt5 nt5_np9"/>
    </vehicle>
    <vehicle id="idle_vehicle_196" type="idle_vehicle" depart="202.2319806401253">
        <route edges="np5_nt3 nt3_nt2 nt2_nt1 nt1_np1"/>
    </vehicle>
    <vehicle id="idle_vehicle_290" type="idle_vehicle" depart="203.6378591229436">
        <route edges="np4_nt1 nt1_nt2 nt2_nt3 nt3_nt6 nt6_np7"/>
    </vehicle>
    <vehicle id="idle_vehicle_131" type="idle_vehicle" depart="204.6494938538066">
        <route edges="np10_nt6 nt6_nt5 nt5_nt4 nt4_np8"/>
    </vehicle>
    <vehicle id="idle_vehicle_451" type="idle_vehicle" depart="204.86509994488688">
        <route edges="np4_nt1 nt1_np1"/>
    </vehicle>
    <vehicle id="idle_vehicle_34" type="idle_vehicle" depart="207.58311768921692">
        <route edges="np2_nt2 nt2_nt3 nt3_nt6 nt6_np7"/>
    </vehicle>
    <vehicle id="idle_vehicle_80" type="idle_vehicle" depart="209.92642086100471">
        <route edges="np10_nt6 nt6_nt5 nt5_np9"/>
    </vehicle>
    <vehicle id="idle_vehicle_97" type="idle_vehicle" depart="210.1614603575066">
        <route edges="np1_nt1 nt1_nt2 nt2_nt3 nt3_nt6 nt6_np7"/>
    </vehicle>
    <vehicle id="idle_vehicle_474" type="idle_vehicle" depart="212.48676219332606">
        <route edges="np7_nt6 nt6_nt5 nt5_np9"/>
    </vehicle>
    <vehicle id="idle_vehicle_308" type="idle_vehicle" depart="212.68328007757881">
        <route edges="np3_nt3 nt3_np5"/>
    </vehicle>
    <vehicle id="idle_vehicle_435" type="idle_vehicle" depart="218.88934080813013">
        <route edges="np5_nt3 nt3_nt2 nt2_nt1 nt1_np4"/>
    </vehicle>
    <vehicle id="idle_vehicle_118" type="idle_vehicle" depart="219.39258740584248">
        <route edges="np2_nt2 nt2_nt1 nt1_np1"/>
    </vehicle>
    <vehicle id="idle_vehicle_209" type="idle_vehicle" depart="221.5414960472608">
        <route edges="np1_nt1 nt1_nt2 nt2_nt3 nt3_nt6 nt6_np10"/>
    </vehicle>
    <vehicle id="idle_vehicle_382" type="idle_vehicle" depart="223.404773481335">
        <route edges="np8_nt4 nt4_nt5 nt5_nt6 nt6_np7"/>
    </vehicle>
    <vehicle id="idle_vehicle_78" type="idle_vehicle" depart="224.12184359878785">
        <route edges="np6_nt4 nt4_nt5 nt5_nt6 nt6_np7"/>
    </vehicle>
    <vehicle id="idle_vehicle_240" type="idle_vehicle" depart="224.39519728915656">
        <route edges="np4_nt1 nt1_nt4 nt4_np6"/>
    </vehicle>
    <vehicle id="idle_vehicle_372" type="idle_vehicle" depart="224.6225785426324">
        <route edges="np6_nt4 nt4_nt5 nt5_np9"/>
    </vehicle>
    <vehicle id="idle_vehicle_442" type="idle_vehicle" depart="225.73427299373705">
        <route edges="np7_nt6 nt6_nt3 nt3_nt2 nt2_nt1 nt1_np4"/>
    </vehicle>
    <vehicle id="idle_vehicle_397" type="idle_vehicle" depart="225.90399978617776">
        <route edges="np6_nt4 nt4_nt1 nt1_nt2 nt2_np2"/>
    </vehicle>
    <vehicle id="idle_vehicle_366" type="idle_vehicle" depart="226.15456139175708">
        <route edges="np6_nt4 nt4_nt1 nt1_np1"/>
    </vehicle>
    <vehicle id="idle_vehicle_63" type="idle_vehicle" depart="226.4813911036935">
        <route edges="np4_nt1 nt1_nt2 nt2_nt5 nt5_np9"/>
    </vehicle>
    <vehicle id="idle_vehicle_368" type="idle_vehicle" depart="226.75823157238213">
        <route edges="np6_nt4 nt4_np8 np8_nt4 nt4_np6"/>
    </vehicle>
    <vehicle id="idle_vehicle_225" type="idle_vehicle" depart="226.8876416012314">
        <route edges="np8_nt4 nt4_nt5 nt5_nt6 nt6_np7"/>
    </vehicle>
    <vehicle id="idle_vehicle_186" type="idle_vehicle" depart="230.1070231606766">
        <route edges="np1_nt1 nt1_nt2 nt2_np2"/>
    </vehicle>
    <vehicle id="idle_vehicle_318" type="idle_vehicle" depart="231.07549976090746">
        <route edges="np10_nt6 nt6_np7 np7_nt6 nt6_np10"/>
    </vehicle>
    <vehicle id="idle_vehicle_244" type="idle_vehicle" depart="232.63074229818832">
        <route edges="np1_nt1 nt1_nt2 nt2_nt3 nt3_nt6 nt6_np7"/>
    </vehicle>
    <vehicle id="idle_vehicle_128" type="idle_vehicle" depart="232.77445855853625">
        <route edges="np10_nt6 nt6_np7 np7_nt6 nt6_np10"/>
    </vehicle>
    <vehicle id="idle_vehicle_457" type="idle_vehicle" depart="235.33479774802836">
        <route edges="np1_nt1 nt1_nt2 nt2_nt3 nt3_np3"/>
    </vehicle>
    <vehicle id="idle_vehicle_307" type="idle_vehicle" depart="238.62804644511354">
        <route edges="np7_nt6 nt6_np10 np10_nt6 nt6_np7"/>
    </vehicle>
    <vehicle id="idle_vehicle_447" type="idle_vehicle" depart="239.3097209417422">
        <route edges="np9_nt5 nt5_nt2 nt2_nt1 nt1_nt4 nt4_nt5 nt5_np9"/>
    </vehicle>
    <vehicle id="idle_vehicle_279" type="idle_vehicle" depart="242.11941391832195">
        <route edges="np2_nt2 nt2_nt3 nt3_nt6 nt6_np7"/>
    </vehicle>
    <vehicle id="idle_vehicle_77" type="idle_vehicle" depart="244.79873763595234">
        <route edges="np3_nt3 nt3_np5"/>
    </vehicle>
    <vehicle id="idle_vehicle_259" type="idle_vehicle" depart="247.03149383802997">
        <route edges="np2_nt2 nt2_nt1 nt1_nt4 nt4_np8"/>
    </vehicle>
    <vehicle id="idle_vehicle_280" type="idle_vehicle" depart="250.04137287750066">
        <route edges="np6_nt4 nt4_nt5 nt5_np9"/>
    </vehicle>
    <vehicle id="idle_vehicle_202" type="idle_vehicle" depart="251.55437715220296">
        <route edges="np2_nt2 nt2_nt1 nt1_np1"/>
    </vehicle>
    <vehicle id="idle_vehicle_62" type="idle_vehicle" depart="255.59628761988637">
        <route edges="np9_nt5 nt5_nt2 nt2_nt1 nt1_np4"/>
    </vehicle>
    <vehicle id="idle_vehicle_453" type="idle_vehicle" depart="259.0133405850155">
        <route edges="np7_nt6 nt6_np10 np10_nt6 nt6_np7"/>
    </vehicle>
    <vehicle id="idle_vehicle_472" type="idle_vehicle" depart="259.45341461280907">
        <route edges="np2_nt2 nt2_nt3 nt3_nt6 nt6_np7"/>
    </vehicle>
    <vehicle id="idle_vehicle_102" type="idle_vehicle" depart="260.37482650461425">
        <route edges="np9_nt5 nt5_nt6 nt6_np7"/>
    </vehicle>
    <vehicle id="idle_vehicle_356" type="idle_vehicle" depart="264.4482380812687">
        <route edges="np2_nt2 nt2_nt5 nt5_np9"/>
    </vehicle>
    <vehicle id="idle_vehicle_204" type="idle_vehicle" depart="268.33117189076825">
        <route edges="np9_nt5 nt5_nt2 nt2_np2"/>
    </vehicle>
    <vehicle id="idle_vehicle_121" type="idle_vehicle" depart="270.0529843655449">
        <route edges="np1_nt1 nt1_nt2 nt2_nt3 nt3_nt6 nt6_np10"/>
    </vehicle>
    <vehicle id="idle_vehicle_185" type="idle_vehicle" depart="277.40695789517844">
        <route edges="np2_nt2 nt2_nt5 nt5_np9"/>
    </vehicle>
    <vehicle id="idle_vehicle_103" type="idle_vehicle" depart="279.01791343230826">
        <route edges="np5_nt3 nt3_np3 np3_nt3 nt3_np5"/>
    </vehicle>
    <vehicle id="idle_vehicle_363" type="idle_vehicle" depart="280.44146626407905">
        <route edges="np7_nt6 nt6_nt3 nt3_np3"/>
    </vehicle>
    <vehicle id="idle_vehicle_414" type="idle_vehicle" depart="282.8362779691487">
        <route edges="np1_nt1 nt1_nt2 nt2_nt3 nt3_np3"/>
    </vehicle>
    <vehicle id="idle_vehicle_98" type="idle_vehicle" depart="283.4256427863025">
        <route edges="np9_nt5 nt5_nt6 nt6_np7"/>
    </vehicle>
    <vehicle id="idle_vehicle_468" type="idle_vehicle" depart="284.4413606477294">
        <route edges="np7_nt6 nt6_nt3 nt3_nt2 nt2_nt1 nt1_np4"/>
    </vehicle>
    <vehicle id="idle_vehicle_172" type="idle_vehicle" depart="286.08220107433357">
        <route edges="np8_nt4 nt4_nt1 nt1_np1"/>
    </vehicle>
    <vehicle id="idle_vehicle_433" type="idle_vehicle" depart="289.68848383365656">
        <route edges="np7_nt6 nt6_nt3 nt3_nt2 nt2_nt1 nt1_np4"/>
    </vehicle>
    <vehicle id="idle_vehicle_20" type="idle_vehicle" depart="293.14856129755907">
        <route edges="np2_nt2 nt2_nt3 nt3_np3"/>
    </vehicle>
    <vehicle id="idle_vehicle_127" type="idle_vehicle" depart="293.5507659186895">
        <route edges="np2_nt2 nt2_nt5 nt5_np9"/>
    </vehicle>
    <vehicle id="idle_vehicle_434" type="idle_vehicle" depart="294.0755010682306">
        <route edges="np6_nt4 nt4_np8"/>
    </vehicle>
    <vehicle id="idle_vehicle_257" type="idle_vehicle" depart="297.1382876663945">
        <route edges="np9_nt5 nt5_nt2 nt2_np2"/>
    </vehicle>
    <vehicle id="idle_vehicle_16" type="idle_vehicle" depart="299.350602344446">
        <route edges="np4_nt1 nt1_np1 np1_nt1 nt1_np4"/>
    </vehicle>
    <vehicle id="idle_vehicle_180" type="idle_vehicle" depart="301.75112135051654">
        <route edges="np8_nt4 nt4_nt5 nt5_np9"/>
    </vehicle>
    <vehicle id="idle_vehicle_424" type="idle_vehicle" depart="302.8927446398443">
        <route edges="np1_nt1 nt1_nt2 nt2_nt3 nt3_nt6 nt6_np7"/>
    </vehicle>
    <vehicle id="idle_vehicle_452" type="idle_vehicle" depart="303.3826191222758">
        <route edges="np4_nt1 nt1_nt2 nt2_nt5 nt5_np9"/>
    </vehicle>
    <vehicle id="idle_vehicle_421" type="idle_vehicle" depart="304.1206148031836">
        <route edges="np10_nt6 nt6_nt3 nt3_nt2 nt2_nt1 nt1_np1"/>
    </vehicle>
    <vehicle id="idle_vehicle_284" type="idle_vehicle" depart="305.7424187060195">
        <route edges="np1_nt1 nt1_np4"/>
    </vehicle>
    <vehicle id="idle_vehicle_24" type="idle_vehicle" depart="308.0784598617413">
        <route edges="np4_nt1 nt1_nt2 nt2_nt3 nt3_np3"/>
    </vehicle>
    <vehicle id="idle_vehicle_58" type="idle_vehicle" depart="308.5434848362774">
        <route edges="np9_nt5 nt5_nt2 nt2_nt1 nt1_np4"/>
    </vehicle>
    <vehicle id="idle_vehicle_152" type="idle_vehicle" depart="309.4712118330672">
        <route edges="np3_nt3 nt3_nt2 nt2_nt5 nt5_np9"/>
    </vehicle>
    <vehicle id="idle_vehicle_37" type="idle_vehicle" depart="313.63675934932473">
        <route edges="np3_nt3 nt3_nt2 nt2_nt1 nt1_nt4 nt4_np8"/>
    </vehicle>
    <vehicle id="idle_vehicle_455" type="idle_vehicle" depart="316.9519131896676">
        <route edges="np2_nt2 nt2_nt1 nt1_nt4 nt4_np8"/>
    </vehicle>
    <vehicle id="idle_vehicle_39" type="idle_vehicle" depart="319.50423637338383">
        <route edges="np3_nt3 nt3_np5"/>
    </vehicle>
    <vehicle id="idle_vehicle_217" type="idle_vehicle" depart="320.2830832252873">
        <route edges="np6_nt4 nt4_nt1 nt1_nt2 nt2_nt3 nt3_np5"/>
    </vehicle>
    <vehicle id="idle_vehicle_281" type="idle_vehicle" depart="320.88483207465225">
        <route edges="np6_nt4 nt4_np8"/>
    </vehicle>
    <vehicle id="idle_vehicle_266" type="idle_vehicle" depart="323.51947541472265">
        <route edges="np10_nt6 nt6_nt3 nt3_nt2 nt2_nt1 nt1_np4"/>
    </vehicle>
    <vehicle id="idle_vehicle_454" type="idle_vehicle" depart="329.4137181002322">