<?xml version="1.0" ?>
<routes>
    <vType id="idle_vehicle" accel="2.6" decel="4.5" sigma="0.5" length="5.0" minGap="2.5" maxSpeed="15.7" carFollowModel="Krauss" tau="1.5" speedFactor="1.2" speedDev="0.8"/>
    <vType id="human_vehicle" accel="2.6" decel="4.5" sigma="0.5" length="5.0" minGap="2.5" maxSpeed="15.7" carFollowModel="Krauss" tau="1.5" speedFactor="1.2" speedDev="0.8"/>
    <vType id="leading_vehicle" accel="2.6" decel="4.5" sigma="0.5" length="5.0" minGap="2.5" maxSpeed="15.7" carFollowModel="Krauss" tau="1.5" speedFactor="1.2" speedDev="0"/>
    <vType id="following_vehicle" accel="2.6" decel="4.5" sigma="0.5" length="5.0" minGap="2.5" maxSpeed="15.7" carFollowModel="EIDM" tau="1.0" speedFactor="1.2" speedDev="0"/>
    <vehicle id="idle_vehicle_685" type="idle_vehicle" depart="2.279817905829251">
        <route edges="np2_nt2 nt2_nt1 nt1_np1"/>
    </vehicle>
    <vehicle id="idle_vehicle_222" type="idle_vehicle" depart="2.287207292730198">
        <route edges="np5_nt3 nt3_np3"/>
    </vehicle>
    <vehicle id="idle_vehicle_271" type="idle_vehicle" depart="3.00100616094765">
        <route edges="np1_nt1 nt1_nt2 nt2_nt3 nt3_nt6 nt6_np10"/>
    </vehicle>
    <vehicle id="idle_vehicle_44" type="idle_vehicle" depart="4.920335148466659">
        <route edges="np5_nt3 nt3_np3 np3_nt3 nt3_np5"/>
    </vehicle>
    <vehicle id="idle_vehicle_162" type="idle_vehicle" depart="6.268410856219209">
        <route edges="np3_nt3 nt3_np5 np5_nt3 nt3_np3"/>
    </vehicle>
    <vehicle id="idle_vehicle_6" type="idle_vehicle" depart="8.117046654278592">
        <route edges="np10_nt6 nt6_nt5 nt5_np9"/>
    </vehicle>
    <vehicle id="idle_vehicle_135" type="idle_vehicle" depart="9.339728668599001">
        <route edges="np2_nt2 nt2_nt1 nt1_nt4 nt4_np6"/>
    </vehicle>
    <vehicle id="idle_vehicle_184" type="idle_vehicle" depart="9.694921767334286">
        <route edges="np9_nt5 nt5_nt2 nt2_nt3 nt3_np5"/>
    </vehicle>
    <vehicle id="idle_vehicle_621" type="idle_vehicle" depart="12.415079765361359">
        <route edges="np5_nt3 nt3_nt6 nt6_np10"/>
    </vehicle>
    <vehicle id="idle_vehicle_314" type="idle_vehicle" depart="12.45472203571314">
        <route edges="np10_nt6 nt6_np7 np7_nt6 nt6_np10"/>
    </vehicle>
    <vehicle id="idle_vehicle_175" type="idle_vehicle" depart="13.22299385174528">
        <route edges="np9_nt5 nt5_nt2 nt2_nt1 nt1_nt4 nt4_nt5 nt5_np9"/>
    </vehicle>
    <vehicle id="idle_vehicle_272" type="idle_vehicle" depart="14.261166794584756">
        <route edges="np10_nt6 nt6_nt3 nt3_np3"/>
    </vehicle>
    <vehicle id="idle_vehicle_347" type="idle_vehicle" depart="14.411282852957275">
        <route edges="np10_nt6 nt6_nt5 nt5_np9"/>
    </vehicle>
    <vehicle id="idle_vehicle_80" type="idle_vehicle" depart="15.844969483842508">
        <route edges="np6_nt4 nt4_nt1 nt1_np4"/>
    </vehicle>
    <vehicle id="idle_vehicle_374" type="idle_vehicle" depart="20.28116832236977">
        <route edges="np9_nt5 nt5_nt2 nt2_nt1 nt1_np1"/>
    </vehicle>
    <vehicle id="idle_vehicle_419" type="idle_vehicle" depart="20.80934291895229">
        <route edges="np3_nt3 nt3_nt2 nt2_nt1 nt1_nt4 nt4_np8"/>
    </vehicle>
    <vehicle id="idle_vehicle_105" type="idle_vehicle" depart="21.025284527158483">
        <route edges="np6_nt4 nt4_nt1 nt1_np1"/>
    </vehicle>
    <vehicle id="idle_vehicle_594" type="idle_vehicle" depart="21.41596979386504">
        <route edges="np4_nt1 nt1_nt4 nt4_np6"/>
    </vehicle>
    <vehicle id="idle_vehicle_350" type="idle_vehicle" depart="23.36721490381075">
        <route edges="np7_nt6 nt6_nt3 nt3_np5"/>
    </vehicle>
    <vehicle id="idle_vehicle_580" type="idle_vehicle" depart="23.619675787666505">
        <route edges="np7_nt6 nt6_nt3 nt3_np5"/>
    </vehicle>
    <vehicle id="idle_vehicle_15" type="idle_vehicle" depart="24.515347833332335">
        <route edges="np7_nt6 nt6_nt3 nt3_np3"/>
    </vehicle>
    <vehicle id="idle_vehicle_630" type="idle_vehicle" depart="26.142419886227852">
        <route edges="np6_nt4 nt4_np8 np8_nt4 nt4_np6"/>
    </vehicle>
    <vehicle id="idle_vehicle_294" type="idle_vehicle" depart="26.79912580934216">
        <route edges="np1_nt1 nt1_nt2 nt2_nt5 nt5_np9"/>
    </vehicle>
    <vehicle id="idle_vehicle_498" type="idle_vehicle" depart="27.180634321790897">
        <route edges="np7_nt6 nt6_nt3 nt3_np3"/>
    </vehicle>
    <vehicle id="idle_vehicle_610" type="idle_vehicle" depart="28.48690449062623">
        <route edges="np6_nt4 nt4_np8 np8_nt4 nt4_np6"/>
    </vehicle>
    <vehicle id="idle_vehicle_712" type="idle_vehicle" depart="30.00153159645995">
        <route edges="np8_nt4 nt4_nt1 nt1_np4"/>
    </vehicle>
    <vehicle id="idle_vehicle_73" type="idle_vehicle" depart="30.817508573295083">
        <route edges="np5_nt3 nt3_nt2 nt2_nt1 nt1_np4"/>
    </vehicle>
    <vehicle id="idle_vehicle_523" type="idle_vehicle" depart="31.389623931820765">
        <route edges="np3_nt3 nt3_np5"/>
    </vehicle>
    <vehicle id="idle_vehicle_62" type="idle_vehicle" depart="31.436312578914638">
        <route edges="np7_nt6 nt6_np10 np10_nt6 nt6_np7"/>
    </vehicle>
    <vehicle id="idle_vehicle_696" type="idle_vehicle" depart="32.37802208235099">
        <route edges="np6_nt4 nt4_nt1 nt1_np4"/>
    </vehicle>
    <vehicle id="idle_vehicle_539" type="idle_vehicle" depart="32.70327318906459">
        <route edges="np6_nt4 nt4_np8"/>
    </vehicle>
    <vehicle id="idle_vehicle_27" type="idle_vehicle" depart="33.35274148665626">
        <route edges="np6_nt4 nt4_nt5 nt5_nt6 nt6_np7"/>
    </vehicle>
    <vehicle id="idle_vehicle_601" type="idle_vehicle" depart="33.86603338110996">
        <route edges="np4_nt1 nt1_nt2 nt2_nt3 nt3_nt6 nt6_np10"/>
    </vehicle>
    <vehicle id="idle_vehicle_530" type="idle_vehicle" depart="36.01851820408282">
        <route edges="np7_nt6 nt6_nt3 nt3_np3"/>
    </vehicle>
    <vehicle id="idle_vehicle_362" type="idle_vehicle" depart="36.229657875734404">
        <route edges="np8_nt4 nt4_nt5 nt5_np9"/>
    </vehicle>
    <vehicle id="idle_vehicle_354" type="idle_vehicle" depart="36.95836791168139">
        <route edges="np3_nt3 nt3_nt2 nt2_np2"/>
    </vehicle>
    <vehicle id="idle_vehicle_172" type="idle_vehicle" depart="38.98298293572893">
        <route edges="np4_nt1 nt1_np1"/>
    </vehicle>
    <vehicle id="idle_vehicle_536" type="idle_vehicle" depart="39.09815880548102">
        <route edges="np6_nt4 nt4_nt1 nt1_nt2 nt2_np2"/>
    </vehicle>
    <vehicle id="idle_vehicle_343" type="idle_vehicle" depart="39.14836610490467">
        <route edges="np2_nt2 nt2_nt3 nt3_nt6 nt6_np7"/>
    </vehicle>
    <vehicle id="idle_vehicle_42" type="idle_vehicle" depart="40.004501515939324">
        <route edges="np4_nt1 nt1_np1"/>
    </vehicle>
    <vehicle id="idle_vehicle_574" type="idle_vehicle" depart="42.4960788760516">
        <route edges="np5_nt3 nt3_nt2 nt2_nt5 nt5_np9"/>
    </vehicle>
    <vehicle id="idle_vehicle_226" type="idle_vehicle" depart="42.52904284803493">
        <route edges="np1_nt1 nt1_nt2 nt2_nt3 nt3_np5"/>
    </vehicle>
    <vehicle id="idle_vehicle_695" type="idle_vehicle" depart="43.00864350731884">
        <route edges="np9_nt5 nt5_nt2 nt2_nt1 nt1_nt4 nt4_nt5 nt5_np9"/>
    </vehicle>
    <vehicle id="idle_vehicle_219" type="idle_vehicle" depart="43.594640768952075">
        <route edges="np3_nt3 nt3_nt2 nt2_nt1 nt1_nt4 nt4_np8"/>
    </vehicle>
    <vehicle id="idle_vehicle_216" type="idle_vehicle" depart="45.50620919335717">
        <route edges="np5_nt3 nt3_nt2 nt2_nt1 nt1_np4"/>
    </vehicle>
    <vehicle id="idle_vehicle_179" type="idle_vehicle" depart="47.76505646514817">
        <route edges="np5_nt3 nt3_nt6 nt6_np7"/>
    </vehicle>
    <vehicle id="idle_vehicle_17" type="idle_vehicle" depart="48.17724250009565">
        <route edges="np9_nt5 nt5_nt2 nt2_nt1 nt1_nt4 nt4_nt5 nt5_np9"/>
    </vehicle>
    <vehicle id="idle_vehicle_20" type="idle_vehicle" depart="48.29159788834119">
        <route edges="np10_nt6 nt6_np7 np7_nt6 nt6_np10"/>
    </vehicle>
    <vehicle id="idle_vehicle_700" type="idle_vehicle" depart="49.68471409473114">
        <route edges="np4_nt1 nt1_nt2 nt2_nt3 nt3_nt6 nt6_np7"/>
    </vehicle>
    <vehicle id="idle_vehicle_339" type="idle_vehicle" depart="49.957982662841346">
        <route edges="np9_nt5 nt5_nt6 nt6_np7"/>
    </vehicle>
    <vehicle id="idle_vehicle_690" type="idle_vehicle" depart="50.39054225805408">
        <route edges="np10_nt6 nt6_nt3 nt3_np5"/>
    </vehicle>
    <vehicle id="idle_vehicle_686" type="idle_vehicle" depart="51.3705990313726">
        <route edges="np7_nt6 nt6_nt5 nt5_nt4 nt4_np8"/>
    </vehicle>
    <vehicle id="idle_vehicle_625" type="idle_vehicle" depart="53.08991671519925">
        <route edges="np10_nt6 nt6_nt5 nt5_nt4 nt4_np6"/>
    </vehicle>
    <vehicle id="idle_vehicle_58" type="idle_vehicle" depart="53.20410778435303">
        <route edges="np3_nt3 nt3_nt2 nt2_nt5 nt5_np9"/>
    </vehicle>
    <vehicle id="idle_vehicle_147" type="idle_vehicle" depart="53.51882117558944">
        <route edges="np10_nt6 nt6_nt5 nt5_np9"/>
    </vehicle>
    <vehicle id="idle_vehicle_427" type="idle_vehicle" depart="57.221114030141784">
        <route edges="np5_nt3 nt3_nt2 nt2_nt5 nt5_np9"/>
    </vehicle>
    <vehicle id="idle_vehicle_356" type="idle_vehicle" depart="57.28557083706738">
        <route edges="np6_nt4 nt4_np8 np8_nt4 nt4_np6"/>
    </vehicle>
    <vehicle id="idle_vehicle_186" type="idle_vehicle" depart="58.78218526714534">
        <route edges="np2_nt2 nt2_nt3 nt3_np5"/>
    </vehicle>
    <vehicle id="idle_vehicle_590" type="idle_vehicle" depart="59.96204020635041">
        <route edges="np2_nt2 nt2_nt3 nt3_nt6 nt6_np7"/>
    </vehicle>
    <vehicle id="idle_vehicle_494" type="idle_vehicle" depart="60.177617389947535">
        <route edges="np8_nt4 nt4_nt5 nt5_np9"/>
    </vehicle>
    <vehicle id="idle_vehicle_322" type="idle_vehicle" depart="61.17410282204698">
        <route edges="np1_nt1 nt1_nt2 nt2_nt5 nt5_np9"/>
    </vehicle>
    <vehicle id="idle_vehicle_48" type="idle_vehicle" depart="61.45959975564477">
        <route edges="np10_nt6 nt6_nt5 nt5_nt4 nt4_np6"/>
    </vehicle>
    <vehicle id="idle_vehicle_355" type="idle_vehicle" depart="62.78768926775431">
        <route edges="np9_nt5 nt5_nt2 nt2_nt1 nt1_nt4 nt4_nt5 nt5_np9"/>
    </vehicle>
    <vehicle id="idle_vehicle_698" type="idle_vehicle" depart="63.43149360459215">
        <route edges="np10_nt6 nt6_nt5 nt5_nt4 nt4_np6"/>
    </vehicle>
    <vehicle id="idle_vehicle_14" type="idle_vehicle" depart="64.6562073625394">
        <route edges="np10_nt6 nt6_nt5 nt5_np9"/>
    </vehicle>
    <vehicle id="idle_vehicle_649" type="idle_vehicle" depart="65.99803015923894">
        <route edges="np6_nt4 nt4_np8"/>
    </vehicle>
    <vehicle id="idle_vehicle_100" type="idle_vehicle" depart="67.73524488246956">
        <route edges="np8_nt4 nt4_nt1 nt1_np4"/>
    </vehicle>
    <vehicle id="idle_vehicle_21" type="idle_vehicle" depart="68.08248649422958">
        <route edges="np9_nt5 nt5_nt4 nt4_np8"/>
    </vehicle>
    <vehicle id="idle_vehicle_332" type="idle_vehicle" depart="68.85417951432977">
        <route edges="np4_nt1 nt1_nt2 nt2_nt3 nt3_np5"/>
    </vehicle>
    <vehicle id="idle_vehicle_604" type="idle_vehicle" depart="69.31312396410468">
        <route edges="np4_nt1 nt1_np1 np1_nt1 nt1_np4"/>
    </vehicle>
    <vehicle id="idle_vehicle_26" type="idle_vehicle" depart="69.54872157909105">
        <route edges="np8_nt4 nt4_nt5 nt5_np9"/>
    </vehicle>
    <vehicle id="idle_vehicle_379" type="idle_vehicle" depart="73.28050421154072">
        <route edges="np7_nt6 nt6_np10"/>
    </vehicle>
    <vehicle id="idle_vehicle_613" type="idle_vehicle" depart="75.03989789747543">
        <route edges="np2_nt2 nt2_nt3 nt3_np3"/>
    </vehicle>
    <vehicle id="idle_vehicle_598" type="idle_vehicle" depart="79.95759752726227">
        <route edges="np7_nt6 nt6_np10"/>
    </vehicle>
    <vehicle id="idle_vehicle_197" type="idle_vehicle" depart="82.85651891599422">
        <route edges="np3_nt3 nt3_np5 np5_nt3 nt3_np3"/>
    </vehicle>
    <vehicle id="idle_vehicle_548" type="idle_vehicle" depart="83.46816050610082">
        <route edges="np4_nt1 nt1_np1 np1_nt1 nt1_np4"/>
    </vehicle>
    <vehicle id="idle_vehicle_541" type="idle_vehicle" depart="84.0045468673388">
        <route edges="np10_nt6 nt6_np7 np7_nt6 nt6_np10"/>
    </vehicle>
    <vehicle id="idle_vehicle_378" type="idle_vehicle" depart="85.3684655797073">
        <route edges="np1_nt1 nt1_nt4 nt4_np8"/>
    </vehicle>
    <vehicle id="idle_vehicle_438" type="idle_vehicle" depart="85.44080372377093">
        <route edges="np1_nt1 nt1_nt2 nt2_nt3 nt3_np3"/>
    </vehicle>
    <vehicle id="idle_vehicle_471" type="idle_vehicle" depart="86.28777318573322">
        <route edges="np8_nt4 nt4_nt1 nt1_nt2 nt2_nt3 nt3_np5"/>
    </vehicle>
    <vehicle id="idle_vehicle_371" type="idle_vehicle" depart="87.02973070160374">
        <route edges="np8_nt4 nt4_nt1 nt1_nt2 nt2_nt3 nt3_np5"/>
    </vehicle>
    <vehicle id="idle_vehicle_409" type="idle_vehicle" depart="87.41425544672792">
        <route edges="np1_nt1 nt1_np4 np4_nt1 nt1_np1"/>
    </vehicle>
    <vehicle id="idle_vehicle_258" type="idle_vehicle" depart="89.9017141591444">
        <route edges="np8_nt4 nt4_np6"/>
    </vehicle>
    <vehicle id="idle_vehicle_641" type="idle_vehicle" depart="90.44454493766958">
        <route edges="np5_nt3 nt3_nt2 nt2_nt1 nt1_np4"/>
    </vehicle>
    <vehicle id="idle_vehicle_206" type="idle_vehicle" depart="91.37010441866815">
        <route edges="np10_nt6 nt6_nt5 nt5_np9"/>
    </vehicle>
    <vehicle id="idle_vehicle_150" type="idle_vehicle" depart="91.54072895299433">
        <route edges="np2_nt2 nt2_nt3 nt3_np5"/>
    </vehicle>
    <vehicle id="idle_vehicle_284" type="idle_vehicle" depart="92.54129500218423">
        <route edges="np3_nt3 nt3_nt6 nt6_np10"/>
    </vehicle>
    <vehicle id="idle_vehicle_451" type="idle_vehicle" depart="92.8500020900235">
        <route edges="np6_nt4 nt4_nt1 nt1_np4"/>
    </vehicle>
    <vehicle id="idle_vehicle_480" type="idle_vehicle" depart="94.25991226767572">
        <route edges="np8_nt4 nt4_nt5 nt5_nt6 nt6_np10"/>
    </vehicle>
    <vehicle id="idle_vehicle_389" type="idle_vehicle" depart="94.7613593117417">
        <route edges="np5_nt3 nt3_nt2 nt2_nt1 nt1_np1"/>
    </vehicle>
    <vehicle id="idle_vehicle_157" type="idle_vehicle" depart="95.88762421937345">
        <route edges="np4_nt1 nt1_nt2 nt2_nt3 nt3_np3"/>
    </vehicle>
    <vehicle id="idle_vehicle_527" type="idle_vehicle" depart="99.29551235717042">
        <route edges="np8_nt4 nt4_nt1 nt1_nt2 nt2_np2"/>
    </vehicle>
    <vehicle id="idle_vehicle_300" type="idle_vehicle" depart="100.80635216087286">
        <route edges="np7_nt6 nt6_nt3 nt3_nt2 nt2_np2"/>
    </vehicle>
    <vehicle id="idle_vehicle_278" type="idle_vehicle" depart="102.95931793374552">
        <route edges="np2_nt2 nt2_nt5 nt5_nt4 nt4_nt1 nt1_nt2 nt2_np2"/>
    </vehicle>
    <vehicle id="idle_vehicle_486" type="idle_vehicle" depart="103.09179582393364">
        <route edges="np5_nt3 nt3_nt2 nt2_nt1 nt1_np1"/>
    </vehicle>
    <vehicle id="idle_vehicle_627" type="idle_vehicle" depart="103.54239645514384">
        <route edges="np9_nt5 nt5_nt4 nt4_np6"/>
    </vehicle>
    <vehicle id="idle_vehicle_153" type="idle_vehicle" depart="107.2283016449716">
        <route edges="np6_nt4 nt4_nt1 nt1_nt2 nt2_np2"/>
    </vehicle>
    <vehicle id="idle_vehicle_430" type="idle_vehicle" depart="107.70025529181683">
        <route edges="np5_nt3 nt3_nt2 nt2_nt1 nt1_np1"/>
    </vehicle>
    <vehicle id="idle_vehicle_505" type="idle_vehicle" depart="107.77529888388324">
        <route edges="np4_nt1 nt1_nt2 nt2_nt3 nt3_np5"/>
    </vehicle>
    <vehicle id="idle_vehicle_327" type="idle_vehicle" depart="109.82629882974742">
        <route edges="np7_nt6 nt6_nt5 nt5_nt4 nt4_np8"/>
    </vehicle>
    <vehicle id="idle_vehicle_256" type="idle_vehicle" depart="110.02935635348638">
        <route edges="np6_nt4 nt4_nt5 nt5_nt6 nt6_np10"/>
    </vehicle>
    <vehicle id="idle_vehicle_377" type="idle_vehicle" depart="110.41773337383214">
        <route edges="np1_nt1 nt1_nt2 nt2_nt3 nt3_np5"/>
    </vehicle>
    <vehicle id="idle_vehicle_569" type="idle_vehicle" depart="113.36152007513559">
        <route edges="np4_nt1 nt1_nt4 nt4_np8"/>
    </vehicle>
    <vehicle id="idle_vehicle_269" type="idle_vehicle" depart="115.065229679883">
        <route edges="np10_nt6 nt6_nt5 nt5_nt4 nt4_np6"/>
    </vehicle>
    <vehicle id="idle_vehicle_71" type="idle_vehicle" depart="115.54081119157527">
        <route edges="np1_nt1 nt1_nt2 nt2_nt3 nt3_nt6 nt6_np10"/>
    </vehicle>
    <vehicle id="idle_vehicle_670" type="idle_vehicle" depart="115.57056478446795">
        <route edges="np6_nt4 nt4_nt1 nt1_np4"/>
    </vehicle>
    <vehicle id="idle_vehicle_171" type="idle_vehicle" depart="115.65599994705042">
        <route edges="np1_nt1 nt1_nt2 nt2_nt5 nt5_np9"/>
    </vehicle>
    <vehicle id="idle_vehicle_195" type="idle_vehicle" depart="116.23653493883977">
        <route edges="np8_nt4 nt4_nt1 nt1_np4"/>
    </vehicle>
    <vehicle id="idle_vehicle_70" type="idle_vehicle" depart="116.38863377912836">
        <route edges="np3_nt3 nt3_nt6 nt6_np7"/>
    </vehicle>
    <vehicle id="idle_vehicle_218" type="idle_vehicle" depart="117.05418128734655">
        <route edges="np3_nt3 nt3_nt2 nt2_nt1 nt1_nt4 nt4_np8"/>
    </vehicle>
    <vehicle id="idle_vehicle_602" type="idle_vehicle" depart="119.51804787848044">
        <route edges="np1_nt1 nt1_nt2 nt2_nt3 nt3_np3"/>
    </vehicle>
    <vehicle id="idle_vehicle_152" type="idle_vehicle" depart="119.5340390204418">
        <route edges="np2_nt2 nt2_nt3 nt3_np3"/>
    </vehicle>
    <vehicle id="idle_vehicle_663" type="idle_vehicle" depart="119.72719321020308">
        <route edges="np10_nt6 nt6_nt3 nt3_np5"/>
    </vehicle>
    <vehicle id="idle_vehicle_407" type="idle_vehicle" depart="120.40986201428305">
        <route edges="np8_nt4 nt4_nt1 nt1_nt2 nt2_np2"/>
    </vehicle>
    <vehicle id="idle_vehicle_506" type="idle_vehicle" depart="123.85424920729342">
        <route edges="np6_nt4 nt4_nt1 nt1_nt2 nt2_nt3 nt3_np3"/>
    </vehicle>
    <vehicle id="idle_vehicle_603" type="idle_vehicle" depart="124.7912182737008">
        <route edges="np5_nt3 nt3_nt2 nt2_nt1 nt1_np1"/>
    </vehicle>
    <vehicle id="idle_vehicle_158" type="idle_vehicle" depart="126.78304596161718">
        <route edges="np5_nt3 nt3_nt2 nt2_nt1 nt1_nt4 nt4_np6"/>
    </vehicle>
    <vehicle id="idle_vehicle_145" type="idle_vehicle" depart="130.269893143707">
        <route edges="np7_nt6 nt6_nt3 nt3_nt2 nt2_np2"/>
    </vehicle>
    <vehicle id="idle_vehicle_128" type="idle_vehicle" depart="130.89170019878847">
        <route edges="np7_nt6 nt6_nt5 nt5_nt4 nt4_np6"/>
    </vehicle>
    <vehicle id="idle_vehicle_532" type="idle_vehicle" depart="130.92537212656995">
        <route edges="np7_nt6 nt6_nt3 nt3_np3"/>
    </vehicle>
    <vehicle id="idle_vehicle_473" type="idle_vehicle" depart="137.22951304890609">
        <route edges="np9_nt5 nt5_nt2 nt2_nt3 nt3_np3"/>
    </vehicle>
    <vehicle id="idle_vehicle_581" type="idle_vehicle" depart="139.4530077388091">
        <route edges="np1_nt1 nt1_np4 np4_nt1 nt1_np1"/>
    </vehicle>
    <vehicle id="idle_vehicle_159" type="idle_vehicle" depart="140.00442651890737">
        <route edges="np2_nt2 nt2_nt1 nt1_np1"/>
    </vehicle>
    <vehicle id="idle_vehicle_86" type="idle_vehicle" depart="140.3700733420269">
        <route edges="np10_nt6 nt6_nt3 nt3_nt2 nt2_np2"/>
    </vehicle>
    <vehicle id="idle_vehicle_510" type="idle_vehicle" depart="141.77990986291604">
        <route edges="np6_nt4 nt4_nt1 nt1_nt2 nt2_np2"/>
    </vehicle>
    <vehicle id="idle_vehicle_132" type="idle_vehicle" depart="141.865018958923">
        <route edges="np9_nt5 nt5_nt2 nt2_nt1 nt1_np1"/>
    </vehicle>
    <vehicle id="idle_vehicle_525" type="idle_vehicle" depart="141.93662283158633">
        <route edges="np4_nt1 nt1_np1 np1_nt1 nt1_np4"/>
    </vehicle>
    <vehicle id="idle_vehicle_537" type="idle_vehicle" depart="142.2577860774756">
        <route edges="np2_nt2 nt2_nt3 nt3_nt6 nt6_np10"/>
    </vehicle>
    <vehicle id="idle_vehicle_22" type="idle_vehicle" depart="143.44446384733587">
        <route edges="np3_nt3 nt3_np5"/>
    </vehicle>
    <vehicle id="idle_vehicle_170" type="idle_vehicle" depart="144.06588843477613">
        <route edges="np2_nt2 nt2_nt3 nt3_np3"/>
    </vehicle>
    <vehicle id="idle_vehicle_74" type="idle_vehicle" depart="145.24513969455802">
        <route edges="np4_nt1 nt1_nt4 nt4_np8"/>
    </vehicle>
    <vehicle id="idle_vehicle_701" type="idle_vehicle" depart="147.8231103566081">
        <route edges="np8_nt4 nt4_nt5 nt5_np9"/>
    </vehicle>
    <vehicle id="idle_vehicle_109" type="idle_vehicle" depart="148.10606428703073">
        <route edges="np9_nt5 nt5_nt2 nt2_nt1 nt1_np4"/>
    </vehicle>
    <vehicle id="idle_vehicle_110" type="idle_vehicle" depart="148.65068456919371">
        <route edges="np8_nt4 nt4_nt5 nt5_nt6 nt6_np7"/>
    </vehicle>
    <vehicle id="idle_vehicle_10" type="idle_vehicle" depart="151.90388836803638">
        <route edges="np9_nt5 nt5_nt2 nt2_np2"/>
    </vehicle>
    <vehicle id="idle_vehicle_43" type="idle_vehicle" depart="152.63174632431253">
        <route edges="np4_nt1 nt1_nt2 nt2_nt3 nt3_nt6 nt6_np10"/>
    </vehicle>
    <vehicle id="idle_vehicle_585" type="idle_vehicle" depart="153.16779260891">
        <route edges="np8_nt4 nt4_nt1 nt1_nt2 nt2_nt3 nt3_np3"/>
    </vehicle>
    <vehicle id="idle_vehicle_23" type="idle_vehicle" depart="155.37672330210964">
        <route edges="np3_nt3 nt3_np5"/>
    </vehicle>
    <vehicle id="idle_vehicle_331" type="idle_vehicle" depart="155.60282331877727">
        <route edges="np2_nt2 nt2_nt3 nt3_np5"/>
    </vehicle>
    <vehicle id="idle_vehicle_337" type="idle_vehicle" depart="156.33835809038618">
        <route edges="np4_nt1 nt1_nt2 nt2_nt5 nt5_np9"/>
    </vehicle>
    <vehicle id="idle_vehicle_90" type="idle_vehicle" depart="157.2499384498766">
        <route edges="np10_nt6 nt6_nt3 nt3_nt2 nt2_nt1 nt1_np4"/>
    </vehicle>
    <vehicle id="idle_vehicle_326" type="idle_vehicle" depart="160.99348088771768">
        <route edges="np4_nt1 nt1_nt2 nt2_nt3 nt3_np5"/>
    </vehicle>
    <vehicle id="idle_vehicle_497" type="idle_vehicle" depart="162.57704345642">
        <route edges="np4_nt1 nt1_np1"/>
    </vehicle>
    <vehicle id="idle_vehicle_275" type="idle_vehicle" depart="163.87051324736746">
        <route edges="np3_nt3 nt3_np5 np5_nt3 nt3_np3"/>
    </vehicle>
    <vehicle id="idle_vehicle_127" type="idle_vehicle" depart="165.86603230924862">
        <route edges="np3_nt3 nt3_np5 np5_nt3 nt3_np3"/>
    </vehicle>
    <vehicle id="idle_vehicle_403" type="idle_vehicle" depart="171.52518864872164">
        <route edges="np4_nt1 nt1_nt2 nt2_nt5 nt5_np9"/>
    </vehicle>
    <vehicle id="idle_vehicle_221" type="idle_vehicle" depart="175.12217983741456">
        <route edges="np9_nt5 nt5_nt2 nt2_nt1 nt1_np1"/>
    </vehicle>
    <vehicle id="idle_vehicle_208" type="idle_vehicle" depart="175.14816873449482">
        <route edges="np5_nt3 nt3_nt6 nt6_np7"/>
    </vehicle>
    <vehicle id="idle_vehicle_369" type="idle_vehicle" depart="175.39348070530966">
        <route edges="np7_nt6 nt6_nt5 nt5_nt4 nt4_np8"/>
    </vehicle>
    <vehicle id="idle_vehicle_2" type="idle_vehicle" depart="176.1881492359282">
        <route edges="np7_nt6 nt6_nt3 nt3_nt2 nt2_nt1 nt1_np1"/>
    </vehicle>
    <vehicle id="idle_vehicle_597" type="idle_vehicle" depart="176.29689350368682">
        <route edges="np5_nt3 nt3_nt2 nt2_nt1 nt1_np1"/>
    </vehicle>
    <vehicle id="idle_vehicle_263" type="idle_vehicle" depart="176.93623236917685">
        <route edges="np8_nt4 nt4_nt5 nt5_np9"/>
    </vehicle>
    <vehicle id="idle_vehicle_319" type="idle_vehicle" depart="179.32434461397014">
        <route edges="np6_nt4 nt4_nt1 nt1_np4"/>
    </vehicle>
    <vehicle id="idle_vehicle_117" type="idle_vehicle" depart="179.34412188841398">
        <route edges="np4_nt1 nt1_nt4 nt4_np8"/>
    </vehicle>
    <vehicle id="idle_vehicle_632" type="idle_vehicle" depart="180.53183246909458">
        <route edges="np5_nt3 nt3_nt2 nt2_np2"/>
    </vehicle>
    <vehicle id="idle_vehicle_444" type="idle_vehicle" depart="180.6841301345327">
        <route edges="np7_nt6 nt6_nt5 nt5_nt4 nt4_np8"/>
    </vehicle>
    <vehicle id="idle_vehicle_112" type="idle_vehicle" depart="181.89737126078356">
        <route edges="np4_nt1 nt1_nt2 nt2_nt3 nt3_np3"/>
    </vehicle>
    <vehicle id="idle_vehicle_514" type="idle_vehicle" depart="182.7393834377709">
        <route edges="np9_nt5 nt5_nt4 nt4_np8"/>
    </vehicle>
    <vehicle id="idle_vehicle_202" type="idle_vehicle" depart="183.56111731216674">
        <route edges="np2_nt2 nt2_nt3 nt3_np3"/>
    </vehicle>
    <vehicle id="idle_vehicle_676" type="idle_vehicle" depart="183.69687933998674">
        <route edges="np4_nt1 nt1_nt2 nt2_nt3 nt3_np3"/>
    </vehicle>
    <vehicle id="idle_vehicle_103" type="idle_vehicle" depart="186.43618713538882">
        <route edges="np7_nt6 nt6_nt5 nt5_nt4 nt4_np8"/>
    </vehicle>
    <vehicle id="idle_vehicle_702" type="idle_vehicle" depart="187.7108406318655">
        <route edges="np6_nt4 nt4_np8 np8_nt4 nt4_np6"/>
    </vehicle>
    <vehicle id="idle_vehicle_635" type="idle_vehicle" depart="187.89449008942896">
        <route edges="np1_nt1 nt1_np4 np4_nt1 nt1_np1"/>
    </vehicle>
    <vehicle id="idle_vehicle_391" type="idle_vehicle" depart="189.61005548283944">
        <route edges="np1_nt1 nt1_nt4 nt4_np8"/>
    </vehicle>
    <vehicle id="idle_vehicle_582" type="idle_vehicle" depart="190.51147051339203">
        <route edges="np3_nt3 nt3_nt2 nt2_nt1 nt1_nt4 nt4_np6"/>
    </vehicle>
    <vehicle id="idle_vehicle_366" type="idle_vehicle" depart="192.91850940757936">
        <route edges="np5_nt3 nt3_nt2 nt2_nt1 nt1_nt4 nt4_np6"/>
    </vehicle>
    <vehicle id="idle_vehicle_487" type="idle_vehicle" depart="194.29626729369335">
        <route edges="np9_nt5 nt5_nt2 nt2_nt1 nt1_np1"/>
    </vehicle>
    <vehicle id="idle_vehicle_452" type="idle_vehicle" depart="199.07908850628635">
        <route edges="np1_nt1 nt1_nt2 nt2_nt5 nt5_np9"/>
    </vehicle>
    <vehicle id="idle_vehicle_136" type="idle_vehicle" depart="200.39923237091574">
        <route edges="np7_nt6 nt6_nt3 nt3_nt2 nt2_np2"/>
    </vehicle>
    <vehicle id="idle_vehicle_552" type="idle_vehicle" depart="201.15298268290366">
        <route edges="np4_nt1 nt1_np1 np1_nt1 nt1_np4"/>
    </vehicle>
    <vehicle id="idle_vehicle_640" type="idle_vehicle" depart="201.32507527555435">
        <route edges="np4_nt1 nt1_np1"/>
    </vehicle>
    <vehicle id="idle_vehicle_398" type="idle_vehicle" depart="203.13469495256706">
        <route edges="np3_nt3 nt3_nt2 nt2_nt1 nt1_np4"/>
    </vehicle>
    <vehicle id="idle_vehicle_388" type="idle_vehicle" depart="203.54780181839908">
        <route edges="np7_nt6 nt6_nt3 nt3_np3"/>
    </vehicle>
    <vehicle id="idle_vehicle_543" type="idle_vehicle" depart="205.38118214111574">
        <route edges="np3_nt3 nt3_nt2 nt2_nt1 nt1_np4"/>
    </vehicle>
    <vehicle id="idle_vehicle_500" type="idle_vehicle" depart="207.11395283378113">
        <route edges="np3_nt3 nt3_nt2 nt2_np2"/>
    </vehicle>
    <vehicle id="idle_vehicle_178" type="idle_vehicle" depart="207.40529551603126">
        <route edges="np7_nt6 nt6_np10 np10_nt6 nt6_np7"/>
    </vehicle>
    <vehicle id="idle_vehicle_618" type="idle_vehicle" depart="207.57527172443852">
        <route edges="np3_nt3 nt3_nt2 nt2_nt5 nt5_np9"/>
    </vehicle>
    <vehicle id="idle_vehicle_665" type="idle_vehicle" depart="208.9413352635426">
        <route edges="np8_nt4 nt4_nt1 nt1_np1"/>
    </vehicle>
    <vehicle id="idle_vehicle_211" type="idle_vehicle" depart="213.43079845840958">
        <route edges="np8_nt4 nt4_np6 np6_nt4 nt4_np8"/>
    </vehicle>
    <vehicle id="idle_vehicle_335" type="idle_vehicle" depart="214.29855354417134">
        <route edges="np6_nt4 nt4_nt5 nt5_nt6 nt6_np10"/>
    </vehicle>
    <vehicle id="idle_vehicle_667" type="idle_vehicle" depart="214.3531567699087">
        <route edges="np3_nt3 nt3_np5"/>
    </vehicle>
    <vehicle id="idle_vehicle_606" type="idle_vehicle" depart="216.72773111114464">
        <route edges="np5_nt3 nt3_nt2 nt2_nt1 nt1_np1"/>
    </vehicle>
    <vehicle id="idle_vehicle_402" type="idle_vehicle" depart="216.78151905005566">
        <route edges="np6_nt4 nt4_nt1 nt1_nt2 nt2_nt3 nt3_np3"/>
    </vehicle>
    <vehicle id="idle_vehicle_85" type="idle_vehicle" depart="217.56400280829791">
        <route edges="np5_nt3 nt3_np3"/>
    </vehicle>
    <vehicle id="idle_vehicle_353" type="idle_vehicle" depart="218.0754095498865">
        <route edges="np9_nt5 nt5_nt4 nt4_np6"/>
    </vehicle>
    <vehicle id="idle_vehicle_405" type="idle_vehicle" depart="219.40517666173918">
        <route edges="np3_nt3 nt3_nt2 nt2_nt1 nt1_np4"/>
    </vehicle>
    <vehicle id="idle_vehicle_381" type="idle_vehicle" depart="219.99164642955984">
        <route edges="np10_nt6 nt6_nt3 nt3_nt2 nt2_nt1 nt1_np4"/>
    </vehicle>
    <vehicle id="idle_vehicle_230" type="idle_vehicle" depart="220.23019265465118">