<?xml version='1.0' encoding='utf-8'?>
<routes><vType id="idle_vehicle" accel="2.6" decel="4.5" sigma="0.5" length="5.0" minGap="2.5" maxSpeed="15.7" carFollowModel="Krauss" tau="1.5" speedFactor="1.2" speedDev="0.8" />
    <vType id="human_vehicle" accel="2.6" decel="4.5" sigma="0.5" length="5.0" minGap="2.5" maxSpeed="15.7" carFollowModel="Krauss" tau="1.5" speedFactor="1.2" speedDev="0.8" />
    <vType id="leading_vehicle" accel="2.6" decel="4.5" sigma="0.5" length="5.0" minGap="2.5" maxSpeed="15.7" carFollowModel="Krauss" tau="1.5" speedFactor="1.2" speedDev="0" />
    <vType id="following_vehicle" accel="2.6" decel="4.5" sigma="0.5" length="5.0" minGap="2.5" maxSpeed="15.7" carFollowModel="EIDM" tau="1.0" speedFactor="1.2" speedDev="0" />
    <vehicle id="idle_vehicle_168" type="idle_vehicle" depart="0.41583558937636766"><route edges="np4_nt1 nt1_nt2 nt2_np2" />
    </vehicle><vehicle id="idle_vehicle_133" type="idle_vehicle" depart="1.1994605137363834"><route edges="np4_nt1 nt1_nt2 nt2_np2" />
    </vehicle><vehicle id="idle_vehicle_229" type="idle_vehicle" depart="2.0500892282221628"><route edges="np9_nt5 nt5_nt2 nt2_nt3 nt3_np3" />
    </vehicle><vehicle id="idle_vehicle_542" type="human_vehicle" depart="2.9976107369250826"><route edges="np6_nt4 nt4_nt1 nt1_nt2 nt2_np2" />
    </vehicle><vehicle id="idle_vehicle_86" type="idle_vehicle" depart="4.583669687072334"><route edges="np5_nt3 nt3_nt6 nt6_np7" />
    </vehicle><vehicle id="idle_vehicle_585" type="idle_vehicle" depart="4.919761383883703"><route edges="np2_nt2 nt2_nt3 nt3_np5" />
    </vehicle><vehicle id="idle_vehicle_123" type="human_vehicle" depart="5.771089725575518"><route edges="np8_nt4 nt4_nt1 nt1_np4" />
    </vehicle><vehicle id="idle_vehicle_177" type="idle_vehicle" depart="8.26094498100245"><route edges="np9_nt5 nt5_nt6 nt6_np7" />
    </vehicle><vehicle id="idle_vehicle_3" type="idle_vehicle" depart="8.423109977972132"><route edges="np3_nt3 nt3_nt2 nt2_nt1 nt1_np4" />
    </vehicle><vehicle id="idle_vehicle_270" type="human_vehicle" depart="9.831660637569861"><route edges="np10_nt6 nt6_nt3 nt3_nt2 nt2_np2" />
    </vehicle><vehicle id="idle_vehicle_348" type="idle_vehicle" depart="11.301784176837337"><route edges="np6_nt4 nt4_nt5 nt5_np9" />
    </vehicle><vehicle id="idle_vehicle_481" type="idle_vehicle" depart="14.1119705660957"><route edges="np9_nt5 nt5_nt6 nt6_np7" />
    </vehicle><vehicle id="idle_vehicle_441" type="idle_vehicle" depart="15.294386830595208"><route edges="np6_nt4 nt4_nt1 nt1_nt2 nt2_np2" />
    </vehicle><vehicle id="idle_vehicle_153" type="human_vehicle" depart="16.777332878363005"><route edges="np8_nt4 nt4_np6" />
    </vehicle><vehicle id="idle_vehicle_580" type="human_vehicle" depart="17.9878634652197"><route edges="np6_nt4 nt4_nt5 nt5_np9" />
    </vehicle><vehicle id="idle_vehicle_280" type="idle_vehicle" depart="18.457559539485224"><route edges="np5_nt3 nt3_nt6 nt6_np7" />
    </vehicle><vehicle id="idle_vehicle_215" type="human_vehicle" depart="21.38559450330657"><route edges="np5_nt3 nt3_nt6 nt6_np7" />
    </vehicle><vehicle id="idle_vehicle_165" type="human_vehicle" depart="21.598249794722157"><route edges="np7_nt6 nt6_np10 np10_nt6 nt6_np7" />
    </vehicle><vehicle id="idle_vehicle_502" type="idle_vehicle" depart="23.21848495315164"><route edges="np7_nt6 nt6_nt3 nt3_np3" />
    </vehicle><vehicle id="idle_vehicle_400" type="idle_vehicle" depart="25.295880142251725"><route edges="np10_nt6 nt6_np7" />
    </vehicle><vehicle id="idle_vehicle_569" type="idle_vehicle" depart="26.081936821377205"><route edges="np3_nt3 nt3_nt2 nt2_nt1 nt1_np1" />
    </vehicle><vehicle id="idle_vehicle_275" type="human_vehicle" depart="27.282543886457145"><route edges="np8_nt4 nt4_nt5 nt5_nt6 nt6_np10" />
    </vehicle><vehicle id="idle_vehicle_7" type="idle_vehicle" depart="29.356296267741744"><route edges="np4_nt1 nt1_nt2 nt2_nt5 nt5_np9" />
    </vehicle><vehicle id="idle_vehicle_358" type="human_vehicle" depart="30.041902192723313"><route edges="np8_nt4 nt4_nt5 nt5_nt6 nt6_np7" />
    </vehicle><vehicle id="idle_vehicle_111" type="idle_vehicle" depart="30.864415971435477"><route edges="np3_nt3 nt3_nt2 nt2_nt1 nt1_np4" />
    </vehicle><vehicle id="idle_vehicle_305" type="idle_vehicle" depart="35.92628350225242"><route edges="np1_nt1 nt1_nt2 nt2_nt3 nt3_np3" />
    </vehicle><vehicle id="idle_vehicle_161" type="idle_vehicle" depart="36.42649427226772"><route edges="np1_nt1 nt1_np4" />
    </vehicle><vehicle id="idle_vehicle_527" type="idle_vehicle" depart="40.595497667455845"><route edges="np3_nt3 nt3_nt2 nt2_nt1 nt1_np4" />
    </vehicle><vehicle id="idle_vehicle_359" type="idle_vehicle" depart="43.76589476674422"><route edges="np6_nt4 nt4_nt1 nt1_nt2 nt2_np2" />
    </vehicle><vehicle id="idle_vehicle_531" type="idle_vehicle" depart="43.8435461685831"><route edges="np7_nt6 nt6_nt5 nt5_nt4 nt4_np8" />
    </vehicle><vehicle id="idle_vehicle_65" type="idle_vehicle" depart="43.84528696811891"><route edges="np4_nt1 nt1_nt2 nt2_nt5 nt5_np9" />
    </vehicle><vehicle id="idle_vehicle_479" type="idle_vehicle" depart="44.33913855058407"><route edges="np1_nt1 nt1_nt2 nt2_nt5 nt5_np9" />
    </vehicle><vehicle id="idle_vehicle_357" type="idle_vehicle" depart="44.601343545035554"><route edges="np4_nt1 nt1_nt4 nt4_np6" />
    </vehicle><vehicle id="idle_vehicle_262" type="idle_vehicle" depart="46.81131436833583"><route edges="np2_nt2 nt2_nt3 nt3_nt6 nt6_np7" />
    </vehicle><vehicle id="idle_vehicle_532" type="idle_vehicle" depart="49.36972001619235"><route edges="np7_nt6 nt6_nt5 nt5_np9" />
    </vehicle><vehicle id="idle_vehicle_461" type="idle_vehicle" depart="49.427720659295545"><route edges="np7_nt6 nt6_nt5 nt5_np9" />
    </vehicle><vehicle id="idle_vehicle_251" type="idle_vehicle" depart="50.746609201350964"><route edges="np1_nt1 nt1_np4 np4_nt1 nt1_np1" />
    </vehicle><vehicle id="idle_vehicle_187" type="idle_vehicle" depart="51.361239757392596"><route edges="np7_nt6 nt6_np10 np10_nt6 nt6_np7" />
    </vehicle><vehicle id="idle_vehicle_87" type="idle_vehicle" depart="52.83749734522685"><route edges="np7_nt6 nt6_nt3 nt3_nt2 nt2_nt1 nt1_np4" />
    </vehicle><vehicle id="idle_vehicle_162" type="idle_vehicle" depart="52.963734992099454"><route edges="np10_nt6 nt6_nt3 nt3_nt2 nt2_nt1 nt1_np4" />
    </vehicle><vehicle id="idle_vehicle_466" type="idle_vehicle" depart="54.95940783142528"><route edges="np7_nt6 nt6_np10 np10_nt6 nt6_np7" />
    </vehicle><vehicle id="idle_vehicle_58" type="idle_vehicle" depart="55.70118519683467"><route edges="np7_nt6 nt6_nt5 nt5_np9" />
    </vehicle><vehicle id="idle_vehicle_1" type="idle_vehicle" depart="55.804334214956164"><route edges="np7_nt6 nt6_nt5 nt5_nt4 nt4_np8" />
    </vehicle><vehicle id="idle_vehicle_564" type="idle_vehicle" depart="57.14939211927464"><route edges="np9_nt5 nt5_nt6 nt6_np10" />
    </vehicle><vehicle id="idle_vehicle_372" type="human_vehicle" depart="57.47638186663133"><route edges="np4_nt1 nt1_nt2 nt2_nt3 nt3_nt6 nt6_np10" />
    </vehicle><vehicle id="idle_vehicle_2" type="idle_vehicle" depart="58.167655305098975"><route edges="np7_nt6 nt6_nt5 nt5_nt4 nt4_np6" />
    </vehicle><vehicle id="idle_vehicle_211" type="idle_vehicle" depart="59.19002716366606"><route edges="np4_nt1 nt1_nt2 nt2_nt3 nt3_nt6 nt6_np7" />
    </vehicle><vehicle id="idle_vehicle_167" type="idle_vehicle" depart="59.334992686626364"><route edges="np1_nt1 nt1_nt4 nt4_np6" />
    </vehicle><vehicle id="idle_vehicle_414" type="human_vehicle" depart="59.91633072575144"><route edges="np8_nt4 nt4_nt5 nt5_np9" />
    </vehicle><vehicle id="idle_vehicle_138" type="human_vehicle" depart="60.53609409343004"><route edges="np7_nt6 nt6_nt3 nt3_nt2 nt2_nt1 nt1_np4" />
    </vehicle><vehicle id="idle_vehicle_368" type="idle_vehicle" depart="60.84149271924355"><route edges="np10_nt6 nt6_nt3 nt3_nt2 nt2_np2" />
    </vehicle><vehicle id="idle_vehicle_8" type="idle_vehicle" depart="63.108647421737714"><route edges="np10_nt6 nt6_nt3 nt3_nt2 nt2_nt1 nt1_np4" />
    </vehicle><vehicle id="idle_vehicle_433" type="idle_vehicle" depart="63.72059300860329"><route edges="np10_nt6 nt6_np7" />
    </vehicle><vehicle id="idle_vehicle_238" type="human_vehicle" depart="64.82595387460215"><route edges="np3_nt3 nt3_nt2 nt2_nt1 nt1_nt4 nt4_np6" />
    </vehicle><vehicle id="idle_vehicle_273" type="idle_vehicle" depart="65.52990495601234"><route edges="np3_nt3 nt3_nt2 nt2_nt1 nt1_np4" />
    </vehicle><vehicle id="idle_vehicle_342" type="idle_vehicle" depart="68.14545744202877"><route edges="np2_nt2 nt2_nt3 nt3_nt6 nt6_np7" />
    </vehicle><vehicle id="idle_vehicle_83" type="idle_vehicle" depart="68.83258609760938"><route edges="np1_nt1 nt1_nt4 nt4_np6" />
    </vehicle><vehicle id="idle_vehicle_518" type="human_vehicle" depart="68.94440411077198"><route edges="np10_nt6 nt6_np7 np7_nt6 nt6_np10" />
    </vehicle><vehicle id="idle_vehicle_338" type="idle_vehicle" depart="69.8228432174993"><route edges="np2_nt2 nt2_nt1 nt1_nt4 nt4_np6" />
    </vehicle><vehicle id="idle_vehicle_59" type="idle_vehicle" depart="70.90449041153404"><route edges="np10_nt6 nt6_nt5 nt5_np9" />
    </vehicle><vehicle id="idle_vehicle_590" type="idle_vehicle" depart="75.65026216877015"><route edges="np8_nt4 nt4_nt5 nt5_np9" />
    </vehicle><vehicle id="idle_vehicle_48" type="idle_vehicle" depart="75.85973594587179"><route edges="np4_nt1 nt1_nt2 nt2_np2" />
    </vehicle><vehicle id="idle_vehicle_365" type="idle_vehicle" depart="77.9855443011062"><route edges="np5_nt3 nt3_nt2 nt2_nt1 nt1_np1" />
    </vehicle><vehicle id="idle_vehicle_120" type="idle_vehicle" depart="79.68381725640805"><route edges="np2_nt2 nt2_nt3 nt3_nt6 nt6_np10" />
    </vehicle><vehicle id="idle_vehicle_408" type="idle_vehicle" depart="79.87918952089741"><route edges="np8_nt4 nt4_nt1 nt1_nt2 nt2_np2" />
    </vehicle><vehicle id="idle_vehicle_136" type="human_vehicle" depart="80.89449334566706"><route edges="np5_nt3 nt3_np3" />
    </vehicle><vehicle id="idle_vehicle_434" type="idle_vehicle" depart="81.32167383978226"><route edges="np10_nt6 nt6_nt3 nt3_nt2 nt2_nt1 nt1_np1" />
    </vehicle><vehicle id="idle_vehicle_182" type="human_vehicle" depart="83.68277517559139"><route edges="np2_nt2 nt2_nt3 nt3_np5" />
    </vehicle><vehicle id="idle_vehicle_188" type="idle_vehicle" depart="87.2773027673957"><route edges="np3_nt3 nt3_nt6 nt6_np7" />
    </vehicle><vehicle id="idle_vehicle_70" type="idle_vehicle" depart="87.32505381977793"><route edges="np4_nt1 nt1_nt2 nt2_nt3 nt3_np5" />
    </vehicle><vehicle id="idle_vehicle_546" type="idle_vehicle" depart="89.18762527933453"><route edges="np10_nt6 nt6_nt3 nt3_nt2 nt2_nt1 nt1_np1" />
    </vehicle><vehicle id="idle_vehicle_393" type="idle_vehicle" depart="89.55358564315121"><route edges="np4_nt1 nt1_nt2 nt2_nt3 nt3_np5" />
    </vehicle><vehicle id="idle_vehicle_573" type="idle_vehicle" depart="89.69567890704528"><route edges="np8_nt4 nt4_nt5 nt5_nt6 nt6_np7" />
    </vehicle><vehicle id="idle_vehicle_566" type="human_vehicle" depart="91.41900889520755"><route edges="np9_nt5 nt5_nt2 nt2_nt1 nt1_nt4 nt4_nt5 nt5_np9" />
    </vehicle><vehicle id="idle_vehicle_38" type="idle_vehicle" depart="95.30270240322221"><route edges="np3_nt3 nt3_nt2 nt2_np2" />
    </vehicle><vehicle id="idle_vehicle_463" type="idle_vehicle" depart="96.29679215607342"><route edges="np5_nt3 nt3_nt2 nt2_nt1 nt1_nt4 nt4_np6" />
    </vehicle><vehicle id="idle_vehicle_594" type="idle_vehicle" depart="97.56983373430242"><route edges="np2_nt2 nt2_nt1 nt1_np4" />
    </vehicle><vehicle id="idle_vehicle_444" type="idle_vehicle" depart="97.74801669045362"><route edges="np1_nt1 nt1_np4" />
    </vehicle><vehicle id="idle_vehicle_129" type="idle_vehicle" depart="98.11825612206535"><route edges="np2_nt2 nt2_nt5 nt5_nt4 nt4_nt1 nt1_nt2 nt2_np2" />
    </vehicle><vehicle id="idle_vehicle_505" type="human_vehicle" depart="98.43510313447057"><route edges="np10_nt6 nt6_nt5 nt5_nt4 nt4_np8" />
    </vehicle><vehicle id="idle_vehicle_551" type="idle_vehicle" depart="98.91646503084601"><route edges="np8_nt4 nt4_nt1 nt1_nt2 nt2_nt3 nt3_np3" />
    </vehicle><vehicle id="idle_vehicle_323" type="idle_vehicle" depart="99.21863680933231"><route edges="np4_nt1 nt1_nt2 nt2_nt5 nt5_np9" />
    </vehicle><vehicle id="idle_vehicle_380" type="idle_vehicle" depart="100.12522636208728"><route edges="np9_nt5 nt5_nt4 nt4_np8" />
    </vehicle><vehicle id="idle_vehicle_423" type="idle_vehicle" depart="100.49404017703543"><route edges="np9_nt5 nt5_nt2 nt2_np2" />
    </vehicle><vehicle id="idle_vehicle_421" type="idle_vehicle" depart="101.13642319707364"><route edges="np10_nt6 nt6_nt5 nt5_np9" />
    </vehicle><vehicle id="idle_vehicle_45" type="human_vehicle" depart="101.4081937601687"><route edges="np8_nt4 nt4_nt5 nt5_np9" />
    </vehicle><vehicle id="idle_vehicle_4" type="idle_vehicle" depart="101.68989621819247"><route edges="np8_nt4 nt4_nt1 nt1_np4" />
    </vehicle><vehicle id="idle_vehicle_196" type="human_vehicle" depart="103.25893160996493"><route edges="np8_nt4 nt4_nt1 nt1_nt2 nt2_np2" />
    </vehicle><vehicle id="idle_vehicle_67" type="idle_vehicle" depart="103.85191019324455"><route edges="np7_nt6 nt6_nt3 nt3_nt2 nt2_nt1 nt1_np4" />
    </vehicle><vehicle id="idle_vehicle_503" type="human_vehicle" depart="103.98171512674664"><route edges="np2_nt2 nt2_nt3 nt3_np3" />
    </vehicle><vehicle id="idle_vehicle_478" type="human_vehicle" depart="104.3716255416137"><route edges="np10_nt6 nt6_nt5 nt5_nt4 nt4_np6" />
    </vehicle><vehicle id="idle_vehicle_412" type="human_vehicle" depart="105.58910225240137"><route edges="np4_nt1 nt1_nt2 nt2_nt3 nt3_nt6 nt6_np7" />
    </vehicle><vehicle id="idle_vehicle_528" type="idle_vehicle" depart="105.80607168182637"><route edges="np5_nt3 nt3_nt6 nt6_np7" />
    </vehicle><vehicle id="idle_vehicle_13" type="idle_vehicle" depart="106.22372929042871"><route edges="np10_nt6 nt6_nt3 nt3_np3" />
    </vehicle><vehicle id="idle_vehicle_50" type="idle_vehicle" depart="108.18401716810983"><route edges="np1_nt1 nt1_nt2 nt2_nt3 nt3_nt6 nt6_np7" />
    </vehicle><vehicle id="idle_vehicle_296" type="idle_vehicle" depart="109.54170894308453"><route edges="np1_nt1 nt1_nt2 nt2_nt3 nt3_np5" />
    </vehicle><vehicle id="idle_vehicle_334" type="idle_vehicle" depart="110.28328437945758"><route edges="np10_nt6 nt6_nt3 nt3_nt2 nt2_np2" />
    </vehicle><vehicle id="idle_vehicle_355" type="idle_vehicle" depart="112.79141017997611"><route edges="np3_nt3 nt3_nt2 nt2_nt1 nt1_nt4 nt4_np8" />
    </vehicle><vehicle id="idle_vehicle_367" type="idle_vehicle" depart="115.80275887222848"><route edges="np6_nt4 nt4_nt5 nt5_np9" />
    </vehicle><vehicle id="idle_vehicle_413" type="idle_vehicle" depart="118.7695698369553"><route edges="np2_nt2 nt2_nt1 nt1_nt4 nt4_np8" />
    </vehicle><vehicle id="idle_vehicle_135" type="idle_vehicle" depart="120.81802899514189"><route edges="np3_nt3 nt3_np5 np5_nt3 nt3_np3" />
    </vehicle><vehicle id="idle_vehicle_64" type="idle_vehicle" depart="122.1731221422008"><route edges="np10_nt6 nt6_nt3 nt3_nt2 nt2_nt1 nt1_np1" />
    </vehicle><vehicle id="idle_vehicle_468" type="idle_vehicle" depart="123.41734948324276"><route edges="np3_nt3 nt3_np5" />
    </vehicle><vehicle id="idle_vehicle_272" type="human_vehicle" depart="125.43674539084897"><route edges="np8_nt4 nt4_nt5 nt5_nt6 nt6_np7" />
    </vehicle><vehicle id="idle_vehicle_460" type="idle_vehicle" depart="128.15708685288715"><route edges="np8_nt4 nt4_nt5 nt5_nt6 nt6_np10" />
    </vehicle><vehicle id="idle_vehicle_343" type="idle_vehicle" depart="130.2787961339302"><route edges="np3_nt3 nt3_nt6 nt6_np7" />
    </vehicle><vehicle id="idle_vehicle_395" type="idle_vehicle" depart="130.85759058680767"><route edges="np7_nt6 nt6_np10" />
    </vehicle><vehicle id="idle_vehicle_235" type="idle_vehicle" depart="131.01711714955852"><route edges="np3_nt3 nt3_nt2 nt2_nt1 nt1_np4" />
    </vehicle><vehicle id="idle_vehicle_475" type="idle_vehicle" depart="132.8028035950929"><route edges="np1_nt1 nt1_nt2 nt2_nt3 nt3_np3" />
    </vehicle><vehicle id="idle_vehicle_524" type="human_vehicle" depart="133.4311525050511"><route edges="np9_nt5 nt5_nt6 nt6_np7" />
    </vehicle><vehicle id="idle_vehicle_553" type="idle_vehicle" depart="133.70054820028773"><route edges="np6_nt4 nt4_nt1 nt1_nt2 nt2_nt3 nt3_np5" />
    </vehicle><vehicle id="idle_vehicle_382" type="idle_vehicle" depart="134.19709143393908"><route edges="np3_nt3 nt3_nt2 nt2_nt1 nt1_nt4 nt4_np6" />
    </vehicle><vehicle id="idle_vehicle_449" type="idle_vehicle" depart="136.09457521210481"><route edges="np9_nt5 nt5_nt2 nt2_nt3 nt3_np5" />
    </vehicle><vehicle id="idle_vehicle_127" type="idle_vehicle" depart="136.84251182667762"><route edges="np2_nt2 nt2_nt3 nt3_np5" />
    </vehicle><vehicle id="idle_vehicle_333" type="idle_vehicle" depart="137.51676420055068"><route edges="np8_nt4 nt4_nt1 nt1_np4" />
    </vehicle><vehicle id="idle_vehicle_436" type="idle_vehicle" depart="139.7001036337163"><route edges="np6_nt4 nt4_nt1 nt1_np1" />
    </vehicle><vehicle id="idle_vehicle_548" type="idle_vehicle" depart="139.74222985572976"><route edges="np3_nt3 nt3_nt2 nt2_nt1 nt1_np4" />
    </vehicle><vehicle id="idle_vehicle_403" type="idle_vehicle" depart="140.06865991762635"><route edges="np3_nt3 nt3_np5" />
    </vehicle><vehicle id="idle_vehicle_206" type="idle_vehicle" depart="145.60292790438564"><route edges="np10_nt6 nt6_nt5 nt5_np9" />
    </vehicle><vehicle id="idle_vehicle_404" type="idle_vehicle" depart="145.95073257139032"><route edges="np9_nt5 nt5_nt2 nt2_nt1 nt1_np4" />
    </vehicle><vehicle id="idle_vehicle_113" type="idle_vehicle" depart="148.19911108710775"><route edges="np4_nt1 nt1_nt4 nt4_np8" />
    </vehicle><vehicle id="idle_vehicle_376" type="idle_vehicle" depart="151.079089049228"><route edges="np2_nt2 nt2_nt3 nt3_nt6 nt6_np10" />
    </vehicle><vehicle id="idle_vehicle_36" type="idle_vehicle" depart="154.269096415911"><route edges="np2_nt2 nt2_nt5 nt5_nt4 nt4_nt1 nt1_nt2 nt2_np2" />
    </vehicle><vehicle id="idle_vehicle_56" type="idle_vehicle" depart="156.19064186863181"><route edges="np7_nt6 nt6_nt3 nt3_np5" />
    </vehicle><vehicle id="idle_vehicle_392" type="idle_vehicle" depart="157.46426073958082"><route edges="np2_nt2 nt2_nt1 nt1_nt4 nt4_np8" />
    </vehicle><vehicle id="idle_vehicle_482" type="idle_vehicle" depart="157.6504548911914"><route edges="np4_nt1 nt1_np1 np1_nt1 nt1_np4" />
    </vehicle><vehicle id="idle_vehicle_240" type="idle_vehicle" depart="158.52233675690312"><route edges="np5_nt3 nt3_np3 np3_nt3 nt3_np5" />
    </vehicle><vehicle id="idle_vehicle_508" type="idle_vehicle" depart="159.59531063990946"><route edges="np9_nt5 nt5_nt2 nt2_nt1 nt1_nt4 nt4_nt5 nt5_np9" />
    </vehicle><vehicle id="idle_vehicle_193" type="idle_vehicle" depart="161.218535771018"><route edges="np6_nt4 nt4_nt1 nt1_nt2 nt2_np2" />
    </vehicle><vehicle id="idle_vehicle_268" type="idle_vehicle" depart="161.66819736101462"><route edges="np1_nt1 nt1_nt2 nt2_nt5 nt5_np9" />
    </vehicle><vehicle id="idle_vehicle_353" type="idle_vehicle" depart="162.8569398732285"><route edges="np1_nt1 nt1_nt2 nt2_nt3 nt3_nt6 nt6_np7" />
    </vehicle><vehicle id="idle_vehicle_511" type="idle_vehicle" depart="164.20128269225467"><route edges="np7_nt6 nt6_nt5 nt5_np9" />
    </vehicle><vehicle id="idle_vehicle_328" type="human_vehicle" depart="164.364224955351"><route edges="np10_nt6 nt6_nt5 nt5_nt4 nt4_np6" />
    </vehicle><vehicle id="idle_vehicle_61" type="idle_vehicle" depart="167.84348030479927"><route edges="np5_nt3 nt3_np3 np3_nt3 nt3_np5" />
    </vehicle><vehicle id="idle_vehicle_79" type="idle_vehicle" depart="169.59773771950043"><route edges="np1_nt1 nt1_nt2 nt2_nt3 nt3_nt6 nt6_np10" />
    </vehicle><vehicle id="idle_vehicle_556" type="idle_vehicle" depart="171.48118326984553"><route edges="np3_nt3 nt3_np5 np5_nt3 nt3_np3" />
    </vehicle><vehicle id="idle_vehicle_339" type="human_vehicle" depart="171.65595353766145"><route edges="np8_nt4 nt4_nt1 nt1_nt2 nt2_np2" />
    </vehicle><vehicle id="idle_vehicle_464" type="idle_vehicle" depart="174.6838772176746"><route edges="np6_nt4 nt4_nt5 nt5_nt6 nt6_np10" />
    </vehicle><vehicle id="idle_vehicle_561" type="human_vehicle" depart="174.71676633203802"><route edges="np10_nt6 nt6_nt3 nt3_np5" />
    </vehicle><vehicle id="idle_vehicle_159" type="idle_vehicle" depart="178.16103158189804"><route edges="np8_nt4 nt4_nt1 nt1_nt2 nt2_nt3 nt3_np3" />
    </vehicle><vehicle id="idle_vehicle_82" type="idle_vehicle" depart="181.4053629260717"><route edges="np3_nt3 nt3_nt2 nt2_np2" />
    </vehicle><vehicle id="idle_vehicle_544" type="idle_vehicle" depart="181.5826030258238"><route edges="np7_nt6 nt6_nt5 nt5_nt4 nt4_np6" />
    </vehicle><vehicle id="idle_vehicle_565" type="human_vehicle" depart="183.80843240853676"><route edges="np5_nt3 nt3_np3 np3_nt3 nt3_np5" />
    </vehicle><vehicle id="idle_vehicle_208" type="idle_vehicle" depart="184.9258800052864"><route edges="np5_nt3 nt3_nt2 nt2_nt1 nt1_np4" />
    </vehicle><vehicle id="idle_vehicle_349" type="idle_vehicle" depart="185.44957308360156"><route edges="np8_nt4 nt4_nt1 nt1_np1" />
    </vehicle><vehicle id="idle_vehicle_361" type="human_vehicle" depart="186.623253140423"><route edges="np5_nt3 nt3_np3 np3_nt3 nt3_np5" />
    </vehicle><vehicle id="idle_vehicle_191" type="idle_vehicle" depart="186.8435274863458"><route edges="np8_nt4 nt4_nt5 nt5_nt6 nt6_np7" />
    </vehicle><vehicle id="idle_vehicle_257" type="idle_vehicle" depart="189.12770582021636"><route edges="np3_nt3 nt3_np5" />
    </vehicle><vehicle id="idle_vehicle_498" type="idle_vehicle" depart="190.89121375809776"><route edges="np2_nt2 nt2_nt5 nt5_nt4 nt4_nt1 nt1_nt2 nt2_np2" />
    </vehicle><vehicle id="idle_vehicle_377" type="human_vehicle" depart="191.8398882494742"><route edges="np6_nt4 nt4_nt1 nt1_nt2 nt2_nt3 nt3_np5" />
    </vehicle><vehicle id="idle_vehicle_500" type="idle_vehicle" depart="196.48827436057124"><route edges="np6_nt4 nt4_nt1 nt1_nt2 nt2_np2" />
    </vehicle><vehicle id="idle_vehicle_236" type="idle_vehicle" depart="197.63852079080948"><route edges="np6_nt4 nt4_nt1 nt1_nt2 nt2_np2" />
    </vehicle><vehicle id="idle_vehicle_145" type="idle_vehicle" depart="198.9876717857088"><route edges="np10_nt6 nt6_nt3 nt3_nt2 nt2_nt1 nt1_np4" />
    </vehicle><vehicle id="idle_vehicle_41" type="human_vehicle" depart="200.82812544439835"><route edges="np2_nt2 nt2_nt5 nt5_nt4 nt4_nt1 nt1_nt2 nt2_np2" />
    </vehicle><vehicle id="idle_vehicle_46" type="idle_vehicle" depart="206.9018270579047"><route edges="np8_nt4 nt4_nt5 nt5_nt6 nt6_np10" />
    </vehicle><vehicle id="idle_vehicle_307" type="idle_vehicle" depart="207.83529899604457"><route edges="np2_nt2 nt2_nt3 nt3_np3" />
    </vehicle><vehicle id="idle_vehicle_108" type="idle_vehicle" depart="208.72870465770487"><route edges="np1_nt1 nt1_nt2 nt2_np2" />
    </vehicle><vehicle id="idle_vehicle_448" type="idle_vehicle" depart="209.01285481017845"><route edges="np9_nt5 nt5_nt6 nt6_np7" />
    </vehicle><vehicle id="idle_vehicle_462" type="idle_vehicle" depart="209.69400817902707"><route edges="np4_nt1 nt1_nt2 nt2_nt3 nt3_np3" />
    </vehicle><vehicle id="idle_vehicle_543" type="idle_vehicle" depart="210.28297922627362"><route edges="np10_nt6 nt6_nt5 nt5_nt4 nt4_np8" />
    </vehicle><vehicle id="idle_vehicle_319" type="idle_vehicle" depart="211.45193360554197"><route edges="np5_nt3 nt3_np3" />
    </vehicle><vehicle id="idle_vehicle_519" type="idle_vehicle" depart="211.8921837058789"><route edges="np4_nt1 nt1_np1" />
    </vehicle><vehicle id="idle_vehicle_558" type="human_vehicle" depart="212.5353142837997"><route edges="np3_nt3 nt3_nt6 nt6_np10" />
    </vehicle><vehicle id="idle_vehicle_451" type="idle_vehicle" depart="212.58821702649317"><route edges="np5_nt3 nt3_nt2 nt2_nt5 nt5_np9" />
    </vehicle><vehicle id="idle_vehicle_198" type="idle_vehicle" depart="213.23171991087912"><route edges="np5_nt3 nt3_nt2 nt2_nt1 nt1_nt4 nt4_np6" />
    </vehicle><vehicle id="idle_vehicle_154" type="idle_vehicle" depart="214.55910816437446"><route edges="np6_nt4 nt4_nt1 nt1_np4" />
    </vehicle><vehicle id="idle_vehicle_547" type="idle_vehicle" depart="214.9414644463051"><route edges="np8_nt4 nt4_nt5 nt5_np9" />
    </vehicle><vehicle id="idle_vehicle_88" type="idle_vehicle" depart="215.52322014879186"><route edges="np8_nt4 nt4_nt1 nt1_np4" />
    </vehicle><vehicle id="idle_vehicle_555" type="human_vehicle" depart="216.34023987952685"><route edges="np4_nt1 nt1_nt2 nt2_np2" />
    </vehicle><vehicle id="idle_vehicle_248" type="idle_vehicle" depart="217.10465636927393"><route edges="np4_nt1 nt1_np1 np1_nt1 nt1_np4" />
    </vehicle><vehicle id="idle_vehicle_23" type="idle_vehicle" depart="219.2071915420076"><route edges="np2_nt2 nt2_nt5 nt5_nt4 nt4_nt1 nt1_nt2 nt2_np2" />
    </vehicle><vehicle id="idle_vehicle_324" type="idle_vehicle" depart="219.88215384237694"><route edges="np4_nt1 nt1_nt2 nt2_nt5 nt5_np9" />
    </vehicle><vehicle id="idle_vehicle_581" type="idle_vehicle" depart="221.7684659365637"><route edges="np9_nt5 nt5_nt2 nt2_nt3 nt3_np3" />
    </vehicle><vehicle id="idle_vehicle_32" type="human_vehicle" depart="223.24128328379908"><route edges="np1_nt1 nt1_np4" />
    </vehicle><vehicle id="idle_vehicle_294" type="idle_vehicle" depart="224.42665661962718"><route edges="np2_nt2 nt2_nt1 nt1_nt4 nt4_np8" />
    </vehicle><vehicle id="idle_vehicle_309" type="idle_vehicle" depart="224.46576468820433"><route edges="np8_nt4 nt4_nt1 nt1_nt2 nt2_np2" />
    </vehicle><vehicle id="idle_vehicle_264" type="human_vehicle" depart="225.5623533979226"><route edges="np8_nt4 nt4_nt1 nt1_nt2 nt2_np2" />
    </vehicle><vehicle id="idle_vehicle_94" type="idle_vehicle" depart="226.63714271469155"><route edges="np10_nt6 nt6_nt3 nt3_np3" />
    </vehicle><vehicle id="idle_vehicle_84" type="idle_vehicle" depart="226.88886010234955"><route edges="np5_nt3 nt3_nt2 nt2_nt1 nt1_np4" />
    </vehicle><vehicle id="idle_vehicle_216" type="human_vehicle" depart="228.4821057800123"><route edges="np1_nt1 nt1_np4" />
    </vehicle><vehicle id="idle_vehicle_310" type="idle_vehicle" depart="228.72212826311565"><route edges="np3_nt3 nt3_nt6 nt6_np10" />
    </vehicle><vehicle id="idle_vehicle_474" type="idle_vehicle" depart="229.6343553690539"><route edges="np8_nt4 nt4_np6 np6_nt4 nt4_np8" />
    </vehicle><vehicle id="idle_vehicle_493" type="idle_vehicle" depart="230.76377950262614"><route edges="np9_nt5 nt5_nt2 nt2_nt3 nt3_np3" />
    </vehicle><vehicle id="idle_vehicle_62" type="human_vehicle" depart="231.58922755762762"><route edges="np1_nt1 nt1_nt4 nt4_np6" />
    </vehicle><vehicle id="idle_vehicle_42" type="idle_vehicle" depart="231.67602402661336"><route edges="np4_nt1 nt1_nt4 nt4_np6" />
    </vehicle><vehicle id="idle_vehicle_562" type="human_vehicle" depart="232.80573250522022"><route edges="np9_nt5 nt5_nt2 nt2_nt3 nt3_np3" />
    </vehicle><vehicle id="idle_vehicle_148" type="idle_vehicle" depart="233.9002134693911"><route edges="np2_nt2 nt2_nt1 nt1_np4" />
    </vehicle><vehicle id="idle_vehicle_28" type="idle_vehicle" depart="235.18332540221928"><route edges="np2_nt2 nt2_nt1 nt1_np4" />
    </vehicle><vehicle id="idle_vehicle_554" type="human_vehicle" depart="235.20404942945774"><route edges="np2_nt2 nt2_nt1 nt1_nt4 nt4_np8" />
    </vehicle><vehicle id="idle_vehicle_263" type="human_vehicle" depart="235.91083168050355"><route edges="np1_nt1 nt1_nt4 nt4_np6" />
    </vehicle><vehicle id="idle_vehicle_176" type="idle_vehicle" depart="237.40578793880883"><route edges="np8_nt4 nt4_nt1 nt1_np4" />
    </vehicle><vehicle id="idle_vehicle_105" type="idle_vehicle" depart="237.49841090278352"><route edges="np7_nt6 nt6_nt3 nt3_nt2 nt2_np2" />
    </vehicle><vehicle id="idle_vehicle_360" type="idle_vehicle" depart="239.54370588773725"><route edges="np1_nt1 nt1_nt2 nt2_nt3 nt3_np5" />
    </vehicle><vehicle id="idle_vehicle_18" type="idle_vehicle" depart="241.16821350071635"><route edges="np7_nt6 nt6_nt3 nt3_nt2 nt2_nt1 nt1_np4" />
    </vehicle><vehicle id="idle_vehicle_97" type="human_vehicle" depart="243.75980185717418"><route edges="np8_nt4 nt4_nt5 nt5_nt6 nt6_np10" />
    </vehicle><vehicle id="idle_vehicle_22" type="idle_vehicle" depart="244.40239358357871"><route edges="np1_nt1 nt1_np4 np4_nt1 nt1_np1" />
    </vehicle><vehicle id="idle_vehicle_598" type="human_vehicle" depart="246.41270836833095"><route edges="np3_nt3 nt3_nt2 nt2_nt5 nt5_np9" />
    </vehicle><vehicle id="idle_vehicle_525" type="idle_vehicle" depart="246.52497560177392"><route edges="np8_nt4 nt4_nt1 nt1_np1" />
    </vehicle><vehicle id="idle_vehicle_74" type="human_vehicle" depart="247.06007548802117"><route edges="np5_nt3 nt3_nt2 nt2_nt1 nt1_nt4 nt4_np6" />
    </vehicle><vehicle id="idle_vehicle_156" type="idle_vehicle" depart="248.24534556603456"><route edges="np6_nt4 nt4_nt5 nt5_np9" />
    </vehicle><vehicle id="idle_vehicle_351" type="idle_vehicle" depart="249.42941496652384"><route edges="np3_nt3 nt3_nt2 nt2_nt1 nt1_np1" />
    </vehicle><vehicle id="idle_vehicle_141" type="human_vehicle" depart="250.4023971175661"><route edges="np4_nt1 nt1_nt2 nt2_nt3 nt3_np3" />
    </vehicle><vehicle id="idle_vehicle_345" type="idle_vehicle" depart="251.79986917952527"><route edges="np9_nt5 nt5_nt2 nt2_np2" />
    </vehicle><vehicle id="idle_vehicle_453" type="human_vehicle" depart="252.2975283629827"><route edges="np3_nt3 nt3_nt2 nt2_np2" />
    </vehicle><vehicle id="idle_vehicle_320" type="human_vehicle" depart="252.51036146345731"><route edges="np9_nt5 nt5_nt2 nt2_nt1 nt1_nt4 nt4_nt5 nt5_np9" />
    </vehicle><vehicle id="idle_vehicle_597" type="idle_vehicle" depart="252.5717283184034"><route edges="np3_nt3 nt3_nt2 nt2_np2" />